/home/ys/Desktop/sDM
GEM5_HOME is /home/ys/Desktop/sDM
g++ -o malloctest.o malloctest.cpp sdmmalloc.cpp -I/home/ys/Desktop/sDM/include  -L/home/ys/Desktop/sDM/util/m5/build/x86/out -lm5  
g++ -o hello.o hello.cpp
Global frequency set at 1000000000000 ticks per second
AbstractMemory [0:0x2000000] constructed!!
AbstractMemory [0x10000000000:0x10002000000] constructed!!
AbstractMemory [0x20000000000:0x20002000000] constructed!!
SEWorkload constructed!!
system[system] construceted!!
mem_pool.cc [poplulate]0:0->2000000
mem_pool.cc [poplulate]1:10000000000->10002000000
mem_pool.cc [poplulate]2:20000000000->20002000000
name:system.cpu0.workload.sDMmanager.mem_side sDMmanager:0x5642bb2fc800sDM.cpp process=(nil),sDMmanager=0x5642bb2fc800,requestorId=5
/home/ys/Desktop/sDM/tests/malloctest/hello.o construct!!
process.cc pool: 0 1 
process.cc:process=0x5642bb10af00,sDMmanager=0x5642bb2fc800
name:system.cpu1.workload.sDMmanager.mem_side sDMmanager:0x5642bb2fca00sDM.cpp process=0x5642bb3a8d80,sDMmanager=0x5642bb2fca00,requestorId=10
/home/ys/Desktop/sDM/tests/malloctest/malloctest.o construct!!
process.cc pool: 0 2 
process.cc:process=0x5642bb45e000,sDMmanager=0x5642bb2fca00
gem5 Simulator System.  https://www.gem5.org
gem5 is copyrighted software; use the --copyright option for details.

gem5 version 22.1.0.0
gem5 compiled May 18 2023 18:20:33
gem5 started May 18 2023 18:55:02
gem5 executing on ys-virtual-machine, pid 131547
command line: build/X86/gem5.opt configs/example/se.py --caches --l1d_size=1kB --l1i_size=1kB --l2cache --l2_size=4kB --num-l2caches=2 --mem-size=32MB '--pool_ids=0,1;0,2' --cpu-type=X86TimingSimpleCPU --num-cpu=2 '--cmd=/home/ys/Desktop/sDM/tests/malloctest/hello.o;/home/ys/Desktop/sDM/tests/malloctest/malloctest.o'

**** REAL SIMULATION ****
hello c
[18565958500]in sDMspace_register: pid=101 vaddr=7fff93045000 size=4198400
sDMspace_register: extra size=0MB(32kB 16kB)
[18565958500]in sdm_malloc npages=17 pool_id=0
mem_pool.cc alloc 6551-17 (id=0)
[18565958500]in sdm_malloc npages=33 pool_id=0
mem_pool.cc alloc 6534-33 (id=0)
[245570538750] sdm_init CME done
Paddr is not aviliable,vaddr is 268040
Paddr is not aviliable,vaddr is 268080
Paddr is not aviliable,vaddr is 2680c0
Paddr is not aviliable,vaddr is 268100
Paddr is not aviliable,vaddr is 268140
Paddr is not aviliable,vaddr is 268180
Paddr is not aviliable,vaddr is 2681c0
Paddr is not aviliable,vaddr is 268200
Paddr is not aviliable,vaddr is 268240
Paddr is not aviliable,vaddr is 268280
Paddr is not aviliable,vaddr is 2682c0
Paddr is not aviliable,vaddr is 268300
Paddr is not aviliable,vaddr is 268340
Paddr is not aviliable,vaddr is 268380
Paddr is not aviliable,vaddr is 2683c0
Paddr is not aviliable,vaddr is 268400
Paddr is not aviliable,vaddr is 268440
Paddr is not aviliable,vaddr is 268480
Paddr is not aviliable,vaddr is 2684c0
Paddr is not aviliable,vaddr is 268500
Paddr is not aviliable,vaddr is 268540
Paddr is not aviliable,vaddr is 268580
Paddr is not aviliable,vaddr is 2685c0
Paddr is not aviliable,vaddr is 268600
Paddr is not aviliable,vaddr is 268640
Paddr is not aviliable,vaddr is 268680
Paddr is not aviliable,vaddr is 2686c0
Paddr is not aviliable,vaddr is 268700
Paddr is not aviliable,vaddr is 268740
Paddr is not aviliable,vaddr is 268780
Paddr is not aviliable,vaddr is 2687c0
Paddr is not aviliable,vaddr is 268040
Paddr is not aviliable,vaddr is 268080
Paddr is not aviliable,vaddr is 2680c0
Paddr is not aviliable,vaddr is 268100
Paddr is not aviliable,vaddr is 268140
Paddr is not aviliable,vaddr is 268180
Paddr is not aviliable,vaddr is 2681c0
Paddr is not aviliable,vaddr is 268200
Paddr is not aviliable,vaddr is 268240
Paddr is not aviliable,vaddr is 268280
Paddr is not aviliable,vaddr is 2682c0
Paddr is not aviliable,vaddr is 268300
Paddr is not aviliable,vaddr is 268340
Paddr is not aviliable,vaddr is 268380
Paddr is not aviliable,vaddr is 2683c0
Paddr is not aviliable,vaddr is 268400
Paddr is not aviliable,vaddr is 268440
Paddr is not aviliable,vaddr is 268480
Paddr is not aviliable,vaddr is 2684c0
Paddr is not aviliable,vaddr is 268500
Paddr is not aviliable,vaddr is 268540
Paddr is not aviliable,vaddr is 268580
Paddr is not aviliable,vaddr is 2685c0
Paddr is not aviliable,vaddr is 268600
Paddr is not aviliable,vaddr is 268640
Paddr is not aviliable,vaddr is 268680
Paddr is not aviliable,vaddr is 2686c0
Paddr is not aviliable,vaddr is 268700
Paddr is not aviliable,vaddr is 268740
Paddr is not aviliable,vaddr is 268780
Paddr is not aviliable,vaddr is 2687c0
Paddr is not aviliable,vaddr is 268040
Paddr is not aviliable,vaddr is 268080
Paddr is not aviliable,vaddr is 2680c0
Paddr is not aviliable,vaddr is 268100
Paddr is not aviliable,vaddr is 268140
Paddr is not aviliable,vaddr is 268180
Paddr is not aviliable,vaddr is 2681c0
Paddr is not aviliable,vaddr is 268200
Paddr is not aviliable,vaddr is 268240
Paddr is not aviliable,vaddr is 268280
Paddr is not aviliable,vaddr is 2682c0
Paddr is not aviliable,vaddr is 268300
Paddr is not aviliable,vaddr is 268340
Paddr is not aviliable,vaddr is 268380
Paddr is not aviliable,vaddr is 2683c0
Paddr is not aviliable,vaddr is 268400
Paddr is not aviliable,vaddr is 268440
Paddr is not aviliable,vaddr is 268480
Paddr is not aviliable,vaddr is 2684c0
Paddr is not aviliable,vaddr is 268500
Paddr is not aviliable,vaddr is 268540
Paddr is not aviliable,vaddr is 268580
Paddr is not aviliable,vaddr is 2685c0
Paddr is not aviliable,vaddr is 268600
Paddr is not aviliable,vaddr is 268640
Paddr is not aviliable,vaddr is 268680
Paddr is not aviliable,vaddr is 2686c0
Paddr is not aviliable,vaddr is 268700
Paddr is not aviliable,vaddr is 268740
Paddr is not aviliable,vaddr is 268780
Paddr is not aviliable,vaddr is 2687c0
Paddr is not aviliable,vaddr is 268040
Paddr is not aviliable,vaddr is 268080
Paddr is not aviliable,vaddr is 2680c0
Paddr is not aviliable,vaddr is 268100
Paddr is not aviliable,vaddr is 268140
Paddr is not aviliable,vaddr is 268180
Paddr is not aviliable,vaddr is 2681c0
Paddr is not aviliable,vaddr is 268200
Paddr is not aviliable,vaddr is 268240
Paddr is not aviliable,vaddr is 268280
Paddr is not aviliable,vaddr is 2682c0
Paddr is not aviliable,vaddr is 268300
Paddr is not aviliable,vaddr is 268340
Paddr is not aviliable,vaddr is 268380
Paddr is not aviliable,vaddr is 2683c0
Paddr is not aviliable,vaddr is 268400
Paddr is not aviliable,vaddr is 268440
Paddr is not aviliable,vaddr is 268480
Paddr is not aviliable,vaddr is 2684c0
Paddr is not aviliable,vaddr is 268500
Paddr is not aviliable,vaddr is 268540
Paddr is not aviliable,vaddr is 268580
Paddr is not aviliable,vaddr is 2685c0
Paddr is not aviliable,vaddr is 268600
Paddr is not aviliable,vaddr is 268640
Paddr is not aviliable,vaddr is 268680
Paddr is not aviliable,vaddr is 2686c0
Paddr is not aviliable,vaddr is 268700
Paddr is not aviliable,vaddr is 268740
Paddr is not aviliable,vaddr is 268780
Paddr is not aviliable,vaddr is 2687c0
Paddr is not aviliable,vaddr is 268040
Paddr is not aviliable,vaddr is 268080
Paddr is not aviliable,vaddr is 2680c0
Paddr is not aviliable,vaddr is 268100
Paddr is not aviliable,vaddr is 268140
Paddr is not aviliable,vaddr is 268180
Paddr is not aviliable,vaddr is 2681c0
Paddr is not aviliable,vaddr is 268200
Paddr is not aviliable,vaddr is 268240
Paddr is not aviliable,vaddr is 268280
Paddr is not aviliable,vaddr is 2682c0
Paddr is not aviliable,vaddr is 268300
Paddr is not aviliable,vaddr is 268340
Paddr is not aviliable,vaddr is 268380
Paddr is not aviliable,vaddr is 2683c0
Paddr is not aviliable,vaddr is 268400
Paddr is not aviliable,vaddr is 268440
Paddr is not aviliable,vaddr is 268480
Paddr is not aviliable,vaddr is 2684c0
Paddr is not aviliable,vaddr is 268500
Paddr is not aviliable,vaddr is 268540
Paddr is not aviliable,vaddr is 268580
Paddr is not aviliable,vaddr is 2685c0
Paddr is not aviliable,vaddr is 268600
Paddr is not aviliable,vaddr is 268640
Paddr is not aviliable,vaddr is 268680
Paddr is not aviliable,vaddr is 2686c0
Paddr is not aviliable,vaddr is 268700
Paddr is not aviliable,vaddr is 268740
Paddr is not aviliable,vaddr is 268780
Paddr is not aviliable,vaddr is 2687c0
Paddr is not aviliable,vaddr is 268040
Paddr is not aviliable,vaddr is 268080
Paddr is not aviliable,vaddr is 2680c0
Paddr is not aviliable,vaddr is 268100
Paddr is not aviliable,vaddr is 268140
Paddr is not aviliable,vaddr is 268180
Paddr is not aviliable,vaddr is 2681c0
Paddr is not aviliable,vaddr is 268200
Paddr is not aviliable,vaddr is 268240
Paddr is not aviliable,vaddr is 268280
Paddr is not aviliable,vaddr is 2682c0
Paddr is not aviliable,vaddr is 268300
Paddr is not aviliable,vaddr is 268340
Paddr is not aviliable,vaddr is 268380
Paddr is not aviliable,vaddr is 2683c0
Paddr is not aviliable,vaddr is 268400
Paddr is not aviliable,vaddr is 268440
Paddr is not aviliable,vaddr is 268480
Paddr is not aviliable,vaddr is 2684c0
Paddr is not aviliable,vaddr is 268500
Paddr is not aviliable,vaddr is 268540
Paddr is not aviliable,vaddr is 268580
Paddr is not aviliable,vaddr is 2685c0
Paddr is not aviliable,vaddr is 268600
Paddr is not aviliable,vaddr is 268640
Paddr is not aviliable,vaddr is 268680
Paddr is not aviliable,vaddr is 2686c0
Paddr is not aviliable,vaddr is 268700
Paddr is not aviliable,vaddr is 268740
Paddr is not aviliable,vaddr is 268780
Paddr is not aviliable,vaddr is 2687c0
Paddr is not aviliable,vaddr is 268040
Paddr is not aviliable,vaddr is 268080
Paddr is not aviliable,vaddr is 2680c0
Paddr is not aviliable,vaddr is 268100
Paddr is not aviliable,vaddr is 268140
Paddr is not aviliable,vaddr is 268180
Paddr is not aviliable,vaddr is 2681c0
Paddr is not aviliable,vaddr is 268200
Paddr is not aviliable,vaddr is 268240
Paddr is not aviliable,vaddr is 268280
Paddr is not aviliable,vaddr is 2682c0
Paddr is not aviliable,vaddr is 268300
Paddr is not aviliable,vaddr is 268340
Paddr is not aviliable,vaddr is 268380
Paddr is not aviliable,vaddr is 2683c0
Paddr is not aviliable,vaddr is 268400
Paddr is not aviliable,vaddr is 268440
Paddr is not aviliable,vaddr is 268480
Paddr is not aviliable,vaddr is 2684c0
Paddr is not aviliable,vaddr is 268500
Paddr is not aviliable,vaddr is 268540
Paddr is not aviliable,vaddr is 268580
Paddr is not aviliable,vaddr is 2685c0
Paddr is not aviliable,vaddr is 268600
Paddr is not aviliable,vaddr is 268640
Paddr is not aviliable,vaddr is 268680
Paddr is not aviliable,vaddr is 2686c0
Paddr is not aviliable,vaddr is 268700
Paddr is not aviliable,vaddr is 268740
Paddr is not aviliable,vaddr is 268780
Paddr is not aviliable,vaddr is 2687c0
Paddr is not aviliable,vaddr is 268040
Paddr is not aviliable,vaddr is 268080
Paddr is not aviliable,vaddr is 2680c0
Paddr is not aviliable,vaddr is 268100
Paddr is not aviliable,vaddr is 268140
Paddr is not aviliable,vaddr is 268180
Paddr is not aviliable,vaddr is 2681c0
Paddr is not aviliable,vaddr is 268200
Paddr is not aviliable,vaddr is 268240
Paddr is not aviliable,vaddr is 268280
Paddr is not aviliable,vaddr is 2682c0
Paddr is not aviliable,vaddr is 268300
Paddr is not aviliable,vaddr is 268340
Paddr is not aviliable,vaddr is 268380
Paddr is not aviliable,vaddr is 2683c0
Paddr is not aviliable,vaddr is 268400
Paddr is not aviliable,vaddr is 268440
Paddr is not aviliable,vaddr is 268480
Paddr is not aviliable,vaddr is 2684c0
Paddr is not aviliable,vaddr is 268500
Paddr is not aviliable,vaddr is 268540
Paddr is not aviliable,vaddr is 268580
Paddr is not aviliable,vaddr is 2685c0
Paddr is not aviliable,vaddr is 268600
Paddr is not aviliable,vaddr is 268640
Paddr is not aviliable,vaddr is 268680
Paddr is not aviliable,vaddr is 2686c0
Paddr is not aviliable,vaddr is 268700
Paddr is not aviliable,vaddr is 268740
Paddr is not aviliable,vaddr is 268780
Paddr is not aviliable,vaddr is 2687c0
Paddr is not aviliable,vaddr is 268040
Paddr is not aviliable,vaddr is 268080
Paddr is not aviliable,vaddr is 2680c0
Paddr is not aviliable,vaddr is 268100
Paddr is not aviliable,vaddr is 268140
Paddr is not aviliable,vaddr is 268180
Paddr is not aviliable,vaddr is 2681c0
Paddr is not aviliable,vaddr is 268200
Paddr is not aviliable,vaddr is 268240
Paddr is not aviliable,vaddr is 268280
Paddr is not aviliable,vaddr is 2682c0
Paddr is not aviliable,vaddr is 268300
Paddr is not aviliable,vaddr is 268340
Paddr is not aviliable,vaddr is 268380
Paddr is not aviliable,vaddr is 2683c0
Paddr is not aviliable,vaddr is 268400
Paddr is not aviliable,vaddr is 268440
Paddr is not aviliable,vaddr is 268480
Paddr is not aviliable,vaddr is 2684c0
Paddr is not aviliable,vaddr is 268500
Paddr is not aviliable,vaddr is 268540
Paddr is not aviliable,vaddr is 268580
Paddr is not aviliable,vaddr is 2685c0
Paddr is not aviliable,vaddr is 268600
Paddr is not aviliable,vaddr is 268640
Paddr is not aviliable,vaddr is 268680
Paddr is not aviliable,vaddr is 2686c0
Paddr is not aviliable,vaddr is 268700
Paddr is not aviliable,vaddr is 268740
Paddr is not aviliable,vaddr is 268780
Paddr is not aviliable,vaddr is 2687c0
Paddr is not aviliable,vaddr is 268040
Paddr is not aviliable,vaddr is 268080
Paddr is not aviliable,vaddr is 2680c0
Paddr is not aviliable,vaddr is 268100
Paddr is not aviliable,vaddr is 268140
Paddr is not aviliable,vaddr is 268180
Paddr is not aviliable,vaddr is 2681c0
Paddr is not aviliable,vaddr is 268200
Paddr is not aviliable,vaddr is 268240
Paddr is not aviliable,vaddr is 268280
Paddr is not aviliable,vaddr is 2682c0
Paddr is not aviliable,vaddr is 268300
Paddr is not aviliable,vaddr is 268340
Paddr is not aviliable,vaddr is 268380
Paddr is not aviliable,vaddr is 2683c0
Paddr is not aviliable,vaddr is 268400
Paddr is not aviliable,vaddr is 268440
Paddr is not aviliable,vaddr is 268480
Paddr is not aviliable,vaddr is 2684c0
Paddr is not aviliable,vaddr is 268500
Paddr is not aviliable,vaddr is 268540
Paddr is not aviliable,vaddr is 268580
Paddr is not aviliable,vaddr is 2685c0
Paddr is not aviliable,vaddr is 268600
Paddr is not aviliable,vaddr is 268640
Paddr is not aviliable,vaddr is 268680
Paddr is not aviliable,vaddr is 2686c0
Paddr is not aviliable,vaddr is 268700
Paddr is not aviliable,vaddr is 268740
Paddr is not aviliable,vaddr is 268780
Paddr is not aviliable,vaddr is 2687c0
Paddr is not aviliable,vaddr is 268040
Paddr is not aviliable,vaddr is 268080
Paddr is not aviliable,vaddr is 2680c0
Paddr is not aviliable,vaddr is 268100
Paddr is not aviliable,vaddr is 268140
Paddr is not aviliable,vaddr is 268180
Paddr is not aviliable,vaddr is 2681c0
Paddr is not aviliable,vaddr is 268200
Paddr is not aviliable,vaddr is 268240
Paddr is not aviliable,vaddr is 268280
Paddr is not aviliable,vaddr is 2682c0
Paddr is not aviliable,vaddr is 268300
Paddr is not aviliable,vaddr is 268340
Paddr is not aviliable,vaddr is 268380
Paddr is not aviliable,vaddr is 2683c0
Paddr is not aviliable,vaddr is 268400
Paddr is not aviliable,vaddr is 268440
Paddr is not aviliable,vaddr is 268480
Paddr is not aviliable,vaddr is 2684c0
Paddr is not aviliable,vaddr is 268500
Paddr is not aviliable,vaddr is 268540
Paddr is not aviliable,vaddr is 268580
Paddr is not aviliable,vaddr is 2685c0
Paddr is not aviliable,vaddr is 268600
Paddr is not aviliable,vaddr is 268640
Paddr is not aviliable,vaddr is 268680
Paddr is not aviliable,vaddr is 2686c0
Paddr is not aviliable,vaddr is 268700
Paddr is not aviliable,vaddr is 268740
Paddr is not aviliable,vaddr is 268780
Paddr is not aviliable,vaddr is 2687c0
Paddr is not aviliable,vaddr is 268040
Paddr is not aviliable,vaddr is 268080
Paddr is not aviliable,vaddr is 2680c0
Paddr is not aviliable,vaddr is 268100
Paddr is not aviliable,vaddr is 268140
Paddr is not aviliable,vaddr is 268180
Paddr is not aviliable,vaddr is 2681c0
Paddr is not aviliable,vaddr is 268200
Paddr is not aviliable,vaddr is 268240
Paddr is not aviliable,vaddr is 268280
Paddr is not aviliable,vaddr is 2682c0
Paddr is not aviliable,vaddr is 268300
Paddr is not aviliable,vaddr is 268340
Paddr is not aviliable,vaddr is 268380
Paddr is not aviliable,vaddr is 2683c0
Paddr is not aviliable,vaddr is 268400
Paddr is not aviliable,vaddr is 268440
Paddr is not aviliable,vaddr is 268480
Paddr is not aviliable,vaddr is 2684c0
Paddr is not aviliable,vaddr is 268500
Paddr is not aviliable,vaddr is 268540
Paddr is not aviliable,vaddr is 268580
Paddr is not aviliable,vaddr is 2685c0
Paddr is not aviliable,vaddr is 268600
Paddr is not aviliable,vaddr is 268640
Paddr is not aviliable,vaddr is 268680
Paddr is not aviliable,vaddr is 2686c0
Paddr is not aviliable,vaddr is 268700
Paddr is not aviliable,vaddr is 268740
Paddr is not aviliable,vaddr is 268780
Paddr is not aviliable,vaddr is 2687c0
Paddr is not aviliable,vaddr is 268040
Paddr is not aviliable,vaddr is 268080
Paddr is not aviliable,vaddr is 2680c0
Paddr is not aviliable,vaddr is 268100
Paddr is not aviliable,vaddr is 268140
Paddr is not aviliable,vaddr is 268180
Paddr is not aviliable,vaddr is 2681c0
Paddr is not aviliable,vaddr is 268200
Paddr is not aviliable,vaddr is 268240
Paddr is not aviliable,vaddr is 268280
Paddr is not aviliable,vaddr is 2682c0
Paddr is not aviliable,vaddr is 268300
Paddr is not aviliable,vaddr is 268340
Paddr is not aviliable,vaddr is 268380
Paddr is not aviliable,vaddr is 2683c0
Paddr is not aviliable,vaddr is 268400
Paddr is not aviliable,vaddr is 268440
Paddr is not aviliable,vaddr is 268480
Paddr is not aviliable,vaddr is 2684c0
Paddr is not aviliable,vaddr is 268500
Paddr is not aviliable,vaddr is 268540
Paddr is not aviliable,vaddr is 268580
Paddr is not aviliable,vaddr is 2685c0
Paddr is not aviliable,vaddr is 268600
Paddr is not aviliable,vaddr is 268640
Paddr is not aviliable,vaddr is 268680
Paddr is not aviliable,vaddr is 2686c0
Paddr is not aviliable,vaddr is 268700
Paddr is not aviliable,vaddr is 268740
Paddr is not aviliable,vaddr is 268780
Paddr is not aviliable,vaddr is 2687c0
Paddr is not aviliable,vaddr is 268040
Paddr is not aviliable,vaddr is 268080
Paddr is not aviliable,vaddr is 2680c0
Paddr is not aviliable,vaddr is 268100
Paddr is not aviliable,vaddr is 268140
Paddr is not aviliable,vaddr is 268180
Paddr is not aviliable,vaddr is 2681c0
Paddr is not aviliable,vaddr is 268200
Paddr is not aviliable,vaddr is 268240
Paddr is not aviliable,vaddr is 268280
Paddr is not aviliable,vaddr is 2682c0
Paddr is not aviliable,vaddr is 268300
Paddr is not aviliable,vaddr is 268340
Paddr is not aviliable,vaddr is 268380
Paddr is not aviliable,vaddr is 2683c0
Paddr is not aviliable,vaddr is 268400
Paddr is not aviliable,vaddr is 268440
Paddr is not aviliable,vaddr is 268480
Paddr is not aviliable,vaddr is 2684c0
Paddr is not aviliable,vaddr is 268500
Paddr is not aviliable,vaddr is 268540
Paddr is not aviliable,vaddr is 268580
Paddr is not aviliable,vaddr is 2685c0
Paddr is not aviliable,vaddr is 268600
Paddr is not aviliable,vaddr is 268640
Paddr is not aviliable,vaddr is 268680
Paddr is not aviliable,vaddr is 2686c0
Paddr is not aviliable,vaddr is 268700
Paddr is not aviliable,vaddr is 268740
Paddr is not aviliable,vaddr is 268780
Paddr is not aviliable,vaddr is 2687c0
Paddr is not aviliable,vaddr is 268040
Paddr is not aviliable,vaddr is 268080
Paddr is not aviliable,vaddr is 2680c0
Paddr is not aviliable,vaddr is 268100
Paddr is not aviliable,vaddr is 268140
Paddr is not aviliable,vaddr is 268180
Paddr is not aviliable,vaddr is 2681c0
Paddr is not aviliable,vaddr is 268200
Paddr is not aviliable,vaddr is 268240
Paddr is not aviliable,vaddr is 268280
Paddr is not aviliable,vaddr is 2682c0
Paddr is not aviliable,vaddr is 268300
Paddr is not aviliable,vaddr is 268340
Paddr is not aviliable,vaddr is 268380
Paddr is not aviliable,vaddr is 2683c0
Paddr is not aviliable,vaddr is 268400
Paddr is not aviliable,vaddr is 268440
Paddr is not aviliable,vaddr is 268480
Paddr is not aviliable,vaddr is 2684c0
Paddr is not aviliable,vaddr is 268500
Paddr is not aviliable,vaddr is 268540
Paddr is not aviliable,vaddr is 268580
Paddr is not aviliable,vaddr is 2685c0
Paddr is not aviliable,vaddr is 268600
Paddr is not aviliable,vaddr is 268640
Paddr is not aviliable,vaddr is 268680
Paddr is not aviliable,vaddr is 2686c0
Paddr is not aviliable,vaddr is 268700
Paddr is not aviliable,vaddr is 268740
Paddr is not aviliable,vaddr is 268780
Paddr is not aviliable,vaddr is 2687c0
Paddr is not aviliable,vaddr is 268040
Paddr is not aviliable,vaddr is 268080
Paddr is not aviliable,vaddr is 2680c0
Paddr is not aviliable,vaddr is 268100
Paddr is not aviliable,vaddr is 268140
Paddr is not aviliable,vaddr is 268180
Paddr is not aviliable,vaddr is 2681c0
Paddr is not aviliable,vaddr is 268200
Paddr is not aviliable,vaddr is 268240
Paddr is not aviliable,vaddr is 268280
Paddr is not aviliable,vaddr is 2682c0
Paddr is not aviliable,vaddr is 268300
Paddr is not aviliable,vaddr is 268340
Paddr is not aviliable,vaddr is 268380
Paddr is not aviliable,vaddr is 2683c0
Paddr is not aviliable,vaddr is 268400
Paddr is not aviliable,vaddr is 268440
Paddr is not aviliable,vaddr is 268480
Paddr is not aviliable,vaddr is 2684c0
Paddr is not aviliable,vaddr is 268500
Paddr is not aviliable,vaddr is 268540
Paddr is not aviliable,vaddr is 268580
Paddr is not aviliable,vaddr is 2685c0
Paddr is not aviliable,vaddr is 268600
Paddr is not aviliable,vaddr is 268640
Paddr is not aviliable,vaddr is 268680
Paddr is not aviliable,vaddr is 2686c0
Paddr is not aviliable,vaddr is 268700
Paddr is not aviliable,vaddr is 268740
Paddr is not aviliable,vaddr is 268780
Paddr is not aviliable,vaddr is 2687c0
Paddr is not aviliable,vaddr is 268040
Paddr is not aviliable,vaddr is 268080
Paddr is not aviliable,vaddr is 2680c0
Paddr is not aviliable,vaddr is 268100
Paddr is not aviliable,vaddr is 268140
Paddr is not aviliable,vaddr is 268180
Paddr is not aviliable,vaddr is 2681c0
Paddr is not aviliable,vaddr is 268200
Paddr is not aviliable,vaddr is 268240
Paddr is not aviliable,vaddr is 268280
Paddr is not aviliable,vaddr is 2682c0
Paddr is not aviliable,vaddr is 268300
Paddr is not aviliable,vaddr is 268340
Paddr is not aviliable,vaddr is 268380
Paddr is not aviliable,vaddr is 2683c0
Paddr is not aviliable,vaddr is 268400
Paddr is not aviliable,vaddr is 268440
Paddr is not aviliable,vaddr is 268480
Paddr is not aviliable,vaddr is 2684c0
Paddr is not aviliable,vaddr is 268500
Paddr is not aviliable,vaddr is 268540
Paddr is not aviliable,vaddr is 268580
Paddr is not aviliable,vaddr is 2685c0
Paddr is not aviliable,vaddr is 268600
Paddr is not aviliable,vaddr is 268640
Paddr is not aviliable,vaddr is 268680
Paddr is not aviliable,vaddr is 2686c0
Paddr is not aviliable,vaddr is 268700
Paddr is not aviliable,vaddr is 268740
Paddr is not aviliable,vaddr is 268780
Paddr is not aviliable,vaddr is 2687c0
Paddr is not aviliable,vaddr is 268040
Paddr is not aviliable,vaddr is 268080
Paddr is not aviliable,vaddr is 2680c0
Paddr is not aviliable,vaddr is 268100
Paddr is not aviliable,vaddr is 268140
Paddr is not aviliable,vaddr is 268180
Paddr is not aviliable,vaddr is 2681c0
Paddr is not aviliable,vaddr is 268200
Paddr is not aviliable,vaddr is 268240
Paddr is not aviliable,vaddr is 268280
Paddr is not aviliable,vaddr is 2682c0
Paddr is not aviliable,vaddr is 268300
Paddr is not aviliable,vaddr is 268340
Paddr is not aviliable,vaddr is 268380
Paddr is not aviliable,vaddr is 2683c0
Paddr is not aviliable,vaddr is 268400
Paddr is not aviliable,vaddr is 268440
Paddr is not aviliable,vaddr is 268480
Paddr is not aviliable,vaddr is 2684c0
Paddr is not aviliable,vaddr is 268500
Paddr is not aviliable,vaddr is 268540
Paddr is not aviliable,vaddr is 268580
Paddr is not aviliable,vaddr is 2685c0
Paddr is not aviliable,vaddr is 268600
Paddr is not aviliable,vaddr is 268640
Paddr is not aviliable,vaddr is 268680
Paddr is not aviliable,vaddr is 2686c0
Paddr is not aviliable,vaddr is 268700
Paddr is not aviliable,vaddr is 268740
Paddr is not aviliable,vaddr is 268780
Paddr is not aviliable,vaddr is 2687c0
Paddr is not aviliable,vaddr is 268040
Paddr is not aviliable,vaddr is 268080
Paddr is not aviliable,vaddr is 2680c0
Paddr is not aviliable,vaddr is 268100
Paddr is not aviliable,vaddr is 268140
Paddr is not aviliable,vaddr is 268180
Paddr is not aviliable,vaddr is 2681c0
Paddr is not aviliable,vaddr is 268200
Paddr is not aviliable,vaddr is 268240
Paddr is not aviliable,vaddr is 268280
Paddr is not aviliable,vaddr is 2682c0
Paddr is not aviliable,vaddr is 268300
Paddr is not aviliable,vaddr is 268340
Paddr is not aviliable,vaddr is 268380
Paddr is not aviliable,vaddr is 2683c0
Paddr is not aviliable,vaddr is 268400
Paddr is not aviliable,vaddr is 268440
Paddr is not aviliable,vaddr is 268480
Paddr is not aviliable,vaddr is 2684c0
Paddr is not aviliable,vaddr is 268500
Paddr is not aviliable,vaddr is 268540
Paddr is not aviliable,vaddr is 268580
Paddr is not aviliable,vaddr is 2685c0
Paddr is not aviliable,vaddr is 268600
Paddr is not aviliable,vaddr is 268640
Paddr is not aviliable,vaddr is 268680
Paddr is not aviliable,vaddr is 2686c0
Paddr is not aviliable,vaddr is 268700
Paddr is not aviliable,vaddr is 268740
Paddr is not aviliable,vaddr is 268780
Paddr is not aviliable,vaddr is 2687c0
Paddr is not aviliable,vaddr is 268040
Paddr is not aviliable,vaddr is 268080
Paddr is not aviliable,vaddr is 2680c0
Paddr is not aviliable,vaddr is 268100
Paddr is not aviliable,vaddr is 268140
Paddr is not aviliable,vaddr is 268180
Paddr is not aviliable,vaddr is 2681c0
Paddr is not aviliable,vaddr is 268200
Paddr is not aviliable,vaddr is 268240
Paddr is not aviliable,vaddr is 268280
Paddr is not aviliable,vaddr is 2682c0
Paddr is not aviliable,vaddr is 268300
Paddr is not aviliable,vaddr is 268340
Paddr is not aviliable,vaddr is 268380
Paddr is not aviliable,vaddr is 2683c0
Paddr is not aviliable,vaddr is 268400
Paddr is not aviliable,vaddr is 268440
Paddr is not aviliable,vaddr is 268480
Paddr is not aviliable,vaddr is 2684c0
Paddr is not aviliable,vaddr is 268500
Paddr is not aviliable,vaddr is 268540
Paddr is not aviliable,vaddr is 268580
Paddr is not aviliable,vaddr is 2685c0
Paddr is not aviliable,vaddr is 268600
Paddr is not aviliable,vaddr is 268640
Paddr is not aviliable,vaddr is 268680
Paddr is not aviliable,vaddr is 2686c0
Paddr is not aviliable,vaddr is 268700
Paddr is not aviliable,vaddr is 268740
Paddr is not aviliable,vaddr is 268780
Paddr is not aviliable,vaddr is 2687c0
Paddr is not aviliable,vaddr is 268040
Paddr is not aviliable,vaddr is 268080
Paddr is not aviliable,vaddr is 2680c0
Paddr is not aviliable,vaddr is 268100
Paddr is not aviliable,vaddr is 268140
Paddr is not aviliable,vaddr is 268180
Paddr is not aviliable,vaddr is 2681c0
Paddr is not aviliable,vaddr is 268200
Paddr is not aviliable,vaddr is 268240
Paddr is not aviliable,vaddr is 268280
Paddr is not aviliable,vaddr is 2682c0
Paddr is not aviliable,vaddr is 268300
Paddr is not aviliable,vaddr is 268340
Paddr is not aviliable,vaddr is 268380
Paddr is not aviliable,vaddr is 2683c0
Paddr is not aviliable,vaddr is 268400
Paddr is not aviliable,vaddr is 268440
Paddr is not aviliable,vaddr is 268480
Paddr is not aviliable,vaddr is 2684c0
Paddr is not aviliable,vaddr is 268500
Paddr is not aviliable,vaddr is 268540
Paddr is not aviliable,vaddr is 268580
Paddr is not aviliable,vaddr is 2685c0
Paddr is not aviliable,vaddr is 268600
Paddr is not aviliable,vaddr is 268640
Paddr is not aviliable,vaddr is 268680
Paddr is not aviliable,vaddr is 2686c0
Paddr is not aviliable,vaddr is 268700
Paddr is not aviliable,vaddr is 268740
Paddr is not aviliable,vaddr is 268780
Paddr is not aviliable,vaddr is 2687c0
Paddr is not aviliable,vaddr is 268040
Paddr is not aviliable,vaddr is 268080
Paddr is not aviliable,vaddr is 2680c0
Paddr is not aviliable,vaddr is 268100
Paddr is not aviliable,vaddr is 268140
Paddr is not aviliable,vaddr is 268180
Paddr is not aviliable,vaddr is 2681c0
Paddr is not aviliable,vaddr is 268200
Paddr is not aviliable,vaddr is 268240
Paddr is not aviliable,vaddr is 268280
Paddr is not aviliable,vaddr is 2682c0
Paddr is not aviliable,vaddr is 268300
Paddr is not aviliable,vaddr is 268340
Paddr is not aviliable,vaddr is 268380
Paddr is not aviliable,vaddr is 2683c0
Paddr is not aviliable,vaddr is 268400
Paddr is not aviliable,vaddr is 268440
Paddr is not aviliable,vaddr is 268480
Paddr is not aviliable,vaddr is 2684c0
Paddr is not aviliable,vaddr is 268500
Paddr is not aviliable,vaddr is 268540
Paddr is not aviliable,vaddr is 268580
Paddr is not aviliable,vaddr is 2685c0
Paddr is not aviliable,vaddr is 268600
Paddr is not aviliable,vaddr is 268640
Paddr is not aviliable,vaddr is 268680
Paddr is not aviliable,vaddr is 2686c0
Paddr is not aviliable,vaddr is 268700
Paddr is not aviliable,vaddr is 268740
Paddr is not aviliable,vaddr is 268780
Paddr is not aviliable,vaddr is 2687c0
Paddr is not aviliable,vaddr is 268040
Paddr is not aviliable,vaddr is 268080
Paddr is not aviliable,vaddr is 2680c0
Paddr is not aviliable,vaddr is 268100
Paddr is not aviliable,vaddr is 268140
Paddr is not aviliable,vaddr is 268180
Paddr is not aviliable,vaddr is 2681c0
Paddr is not aviliable,vaddr is 268200
Paddr is not aviliable,vaddr is 268240
Paddr is not aviliable,vaddr is 268280
Paddr is not aviliable,vaddr is 2682c0
Paddr is not aviliable,vaddr is 268300
Paddr is not aviliable,vaddr is 268340
Paddr is not aviliable,vaddr is 268380
Paddr is not aviliable,vaddr is 2683c0
Paddr is not aviliable,vaddr is 268400
Paddr is not aviliable,vaddr is 268440
Paddr is not aviliable,vaddr is 268480
Paddr is not aviliable,vaddr is 2684c0
Paddr is not aviliable,vaddr is 268500
Paddr is not aviliable,vaddr is 268540
Paddr is not aviliable,vaddr is 268580
Paddr is not aviliable,vaddr is 2685c0
Paddr is not aviliable,vaddr is 268600
Paddr is not aviliable,vaddr is 268640
Paddr is not aviliable,vaddr is 268680
Paddr is not aviliable,vaddr is 2686c0
Paddr is not aviliable,vaddr is 268700
Paddr is not aviliable,vaddr is 268740
Paddr is not aviliable,vaddr is 268780
Paddr is not aviliable,vaddr is 2687c0
Paddr is not aviliable,vaddr is 268040
Paddr is not aviliable,vaddr is 268080
Paddr is not aviliable,vaddr is 2680c0
Paddr is not aviliable,vaddr is 268100
Paddr is not aviliable,vaddr is 268140
Paddr is not aviliable,vaddr is 268180
Paddr is not aviliable,vaddr is 2681c0
Paddr is not aviliable,vaddr is 268200
Paddr is not aviliable,vaddr is 268240
Paddr is not aviliable,vaddr is 268280
Paddr is not aviliable,vaddr is 2682c0
Paddr is not aviliable,vaddr is 268300
Paddr is not aviliable,vaddr is 268340
Paddr is not aviliable,vaddr is 268380
Paddr is not aviliable,vaddr is 2683c0
Paddr is not aviliable,vaddr is 268400
Paddr is not aviliable,vaddr is 268440
Paddr is not aviliable,vaddr is 268480
Paddr is not aviliable,vaddr is 2684c0
Paddr is not aviliable,vaddr is 268500
Paddr is not aviliable,vaddr is 268540
Paddr is not aviliable,vaddr is 268580
Paddr is not aviliable,vaddr is 2685c0
Paddr is not aviliable,vaddr is 268600
Paddr is not aviliable,vaddr is 268640
Paddr is not aviliable,vaddr is 268680
Paddr is not aviliable,vaddr is 2686c0
Paddr is not aviliable,vaddr is 268700
Paddr is not aviliable,vaddr is 268740
Paddr is not aviliable,vaddr is 268780
Paddr is not aviliable,vaddr is 2687c0
Paddr is not aviliable,vaddr is 268040
Paddr is not aviliable,vaddr is 268080
Paddr is not aviliable,vaddr is 2680c0
Paddr is not aviliable,vaddr is 268100
Paddr is not aviliable,vaddr is 268140
Paddr is not aviliable,vaddr is 268180
Paddr is not aviliable,vaddr is 2681c0
Paddr is not aviliable,vaddr is 268200
Paddr is not aviliable,vaddr is 268240
Paddr is not aviliable,vaddr is 268280
Paddr is not aviliable,vaddr is 2682c0
Paddr is not aviliable,vaddr is 268300
Paddr is not aviliable,vaddr is 268340
Paddr is not aviliable,vaddr is 268380
Paddr is not aviliable,vaddr is 2683c0
Paddr is not aviliable,vaddr is 268400
Paddr is not aviliable,vaddr is 268440
Paddr is not aviliable,vaddr is 268480
Paddr is not aviliable,vaddr is 2684c0
Paddr is not aviliable,vaddr is 268500
Paddr is not aviliable,vaddr is 268540
Paddr is not aviliable,vaddr is 268580
Paddr is not aviliable,vaddr is 2685c0
Paddr is not aviliable,vaddr is 268600
Paddr is not aviliable,vaddr is 268640
Paddr is not aviliable,vaddr is 268680
Paddr is not aviliable,vaddr is 2686c0
Paddr is not aviliable,vaddr is 268700
Paddr is not aviliable,vaddr is 268740
Paddr is not aviliable,vaddr is 268780
Paddr is not aviliable,vaddr is 2687c0
Paddr is not aviliable,vaddr is 268040
Paddr is not aviliable,vaddr is 268080
Paddr is not aviliable,vaddr is 2680c0
Paddr is not aviliable,vaddr is 268100
Paddr is not aviliable,vaddr is 268140
Paddr is not aviliable,vaddr is 268180
Paddr is not aviliable,vaddr is 2681c0
Paddr is not aviliable,vaddr is 268200
Paddr is not aviliable,vaddr is 268240
Paddr is not aviliable,vaddr is 268280
Paddr is not aviliable,vaddr is 2682c0
Paddr is not aviliable,vaddr is 268300
Paddr is not aviliable,vaddr is 268340
Paddr is not aviliable,vaddr is 268380
Paddr is not aviliable,vaddr is 2683c0
Paddr is not aviliable,vaddr is 268400
Paddr is not aviliable,vaddr is 268440
Paddr is not aviliable,vaddr is 268480
Paddr is not aviliable,vaddr is 2684c0
Paddr is not aviliable,vaddr is 268500
Paddr is not aviliable,vaddr is 268540
Paddr is not aviliable,vaddr is 268580
Paddr is not aviliable,vaddr is 2685c0
Paddr is not aviliable,vaddr is 268600
Paddr is not aviliable,vaddr is 268640
Paddr is not aviliable,vaddr is 268680
Paddr is not aviliable,vaddr is 2686c0
Paddr is not aviliable,vaddr is 268700
Paddr is not aviliable,vaddr is 268740
Paddr is not aviliable,vaddr is 268780
Paddr is not aviliable,vaddr is 2687c0
Paddr is not aviliable,vaddr is 268040
Paddr is not aviliable,vaddr is 268080
Paddr is not aviliable,vaddr is 2680c0
Paddr is not aviliable,vaddr is 268100
Paddr is not aviliable,vaddr is 268140
Paddr is not aviliable,vaddr is 268180
Paddr is not aviliable,vaddr is 2681c0
Paddr is not aviliable,vaddr is 268200
Paddr is not aviliable,vaddr is 268240
Paddr is not aviliable,vaddr is 268280
Paddr is not aviliable,vaddr is 2682c0
Paddr is not aviliable,vaddr is 268300
Paddr is not aviliable,vaddr is 268340
Paddr is not aviliable,vaddr is 268380
Paddr is not aviliable,vaddr is 2683c0
Paddr is not aviliable,vaddr is 268400
Paddr is not aviliable,vaddr is 268440
Paddr is not aviliable,vaddr is 268480
Paddr is not aviliable,vaddr is 2684c0
Paddr is not aviliable,vaddr is 268500
Paddr is not aviliable,vaddr is 268540
Paddr is not aviliable,vaddr is 268580
Paddr is not aviliable,vaddr is 2685c0
Paddr is not aviliable,vaddr is 268600
Paddr is not aviliable,vaddr is 268640
Paddr is not aviliable,vaddr is 268680
Paddr is not aviliable,vaddr is 2686c0
Paddr is not aviliable,vaddr is 268700
Paddr is not aviliable,vaddr is 268740
Paddr is not aviliable,vaddr is 268780
Paddr is not aviliable,vaddr is 2687c0
Paddr is not aviliable,vaddr is 268040
Paddr is not aviliable,vaddr is 268080
Paddr is not aviliable,vaddr is 2680c0
Paddr is not aviliable,vaddr is 268100
Paddr is not aviliable,vaddr is 268140
Paddr is not aviliable,vaddr is 268180
Paddr is not aviliable,vaddr is 2681c0
Paddr is not aviliable,vaddr is 268200
Paddr is not aviliable,vaddr is 268240
Paddr is not aviliable,vaddr is 268280
Paddr is not aviliable,vaddr is 2682c0
Paddr is not aviliable,vaddr is 268300
Paddr is not aviliable,vaddr is 268340
Paddr is not aviliable,vaddr is 268380
Paddr is not aviliable,vaddr is 2683c0
Paddr is not aviliable,vaddr is 268400
Paddr is not aviliable,vaddr is 268440
Paddr is not aviliable,vaddr is 268480
Paddr is not aviliable,vaddr is 2684c0
Paddr is not aviliable,vaddr is 268500
Paddr is not aviliable,vaddr is 268540
Paddr is not aviliable,vaddr is 268580
Paddr is not aviliable,vaddr is 2685c0
Paddr is not aviliable,vaddr is 268600
Paddr is not aviliable,vaddr is 268640
Paddr is not aviliable,vaddr is 268680
Paddr is not aviliable,vaddr is 2686c0
Paddr is not aviliable,vaddr is 268700
Paddr is not aviliable,vaddr is 268740
Paddr is not aviliable,vaddr is 268780
Paddr is not aviliable,vaddr is 2687c0
Paddr is not aviliable,vaddr is 268040
Paddr is not aviliable,vaddr is 268080
Paddr is not aviliable,vaddr is 2680c0
Paddr is not aviliable,vaddr is 268100
Paddr is not aviliable,vaddr is 268140
Paddr is not aviliable,vaddr is 268180
Paddr is not aviliable,vaddr is 2681c0
Paddr is not aviliable,vaddr is 268200
Paddr is not aviliable,vaddr is 268240
Paddr is not aviliable,vaddr is 268280
Paddr is not aviliable,vaddr is 2682c0
Paddr is not aviliable,vaddr is 268300
Paddr is not aviliable,vaddr is 268340
Paddr is not aviliable,vaddr is 268380
Paddr is not aviliable,vaddr is 2683c0
Paddr is not aviliable,vaddr is 268400
Paddr is not aviliable,vaddr is 268440
Paddr is not aviliable,vaddr is 268480
Paddr is not aviliable,vaddr is 2684c0
Paddr is not aviliable,vaddr is 268500
Paddr is not aviliable,vaddr is 268540
Paddr is not aviliable,vaddr is 268580
Paddr is not aviliable,vaddr is 2685c0
Paddr is not aviliable,vaddr is 268600
Paddr is not aviliable,vaddr is 268640
Paddr is not aviliable,vaddr is 268680
Paddr is not aviliable,vaddr is 2686c0
Paddr is not aviliable,vaddr is 268700
Paddr is not aviliable,vaddr is 268740
Paddr is not aviliable,vaddr is 268780
Paddr is not aviliable,vaddr is 2687c0
Paddr is not aviliable,vaddr is 268040
Paddr is not aviliable,vaddr is 268080
Paddr is not aviliable,vaddr is 2680c0
Paddr is not aviliable,vaddr is 268100
Paddr is not aviliable,vaddr is 268140
Paddr is not aviliable,vaddr is 268180
Paddr is not aviliable,vaddr is 2681c0
Paddr is not aviliable,vaddr is 268200
Paddr is not aviliable,vaddr is 268240
Paddr is not aviliable,vaddr is 268280
Paddr is not aviliable,vaddr is 2682c0
Paddr is not aviliable,vaddr is 268300
Paddr is not aviliable,vaddr is 268340
Paddr is not aviliable,vaddr is 268380
Paddr is not aviliable,vaddr is 2683c0
Paddr is not aviliable,vaddr is 268400
Paddr is not aviliable,vaddr is 268440
Paddr is not aviliable,vaddr is 268480
Paddr is not aviliable,vaddr is 2684c0
Paddr is not aviliable,vaddr is 268500
Paddr is not aviliable,vaddr is 268540
Paddr is not aviliable,vaddr is 268580
Paddr is not aviliable,vaddr is 2685c0
Paddr is not aviliable,vaddr is 268600
Paddr is not aviliable,vaddr is 268640
Paddr is not aviliable,vaddr is 268680
Paddr is not aviliable,vaddr is 2686c0
Paddr is not aviliable,vaddr is 268700
Paddr is not aviliable,vaddr is 268740
Paddr is not aviliable,vaddr is 268780
Paddr is not aviliable,vaddr is 2687c0
Paddr is not aviliable,vaddr is 268040
Paddr is not aviliable,vaddr is 268080
Paddr is not aviliable,vaddr is 2680c0
Paddr is not aviliable,vaddr is 268100
Paddr is not aviliable,vaddr is 268140
Paddr is not aviliable,vaddr is 268180
Paddr is not aviliable,vaddr is 2681c0
Paddr is not aviliable,vaddr is 268200
Paddr is not aviliable,vaddr is 268240
Paddr is not aviliable,vaddr is 268280
Paddr is not aviliable,vaddr is 2682c0
Paddr is not aviliable,vaddr is 268300
Paddr is not aviliable,vaddr is 268340
Paddr is not aviliable,vaddr is 268380
Paddr is not aviliable,vaddr is 2683c0
Paddr is not aviliable,vaddr is 268400
Paddr is not aviliable,vaddr is 268440
Paddr is not aviliable,vaddr is 268480
Paddr is not aviliable,vaddr is 2684c0
Paddr is not aviliable,vaddr is 268500
Paddr is not aviliable,vaddr is 268540
Paddr is not aviliable,vaddr is 268580
Paddr is not aviliable,vaddr is 2685c0
Paddr is not aviliable,vaddr is 268600
Paddr is not aviliable,vaddr is 268640
Paddr is not aviliable,vaddr is 268680
Paddr is not aviliable,vaddr is 2686c0
Paddr is not aviliable,vaddr is 268700
Paddr is not aviliable,vaddr is 268740
Paddr is not aviliable,vaddr is 268780
Paddr is not aviliable,vaddr is 2687c0
Paddr is not aviliable,vaddr is 268040
Paddr is not aviliable,vaddr is 268080
Paddr is not aviliable,vaddr is 2680c0
Paddr is not aviliable,vaddr is 268100
Paddr is not aviliable,vaddr is 268140
Paddr is not aviliable,vaddr is 268180
Paddr is not aviliable,vaddr is 2681c0
Paddr is not aviliable,vaddr is 268200
Paddr is not aviliable,vaddr is 268240
Paddr is not aviliable,vaddr is 268280
Paddr is not aviliable,vaddr is 2682c0
Paddr is not aviliable,vaddr is 268300
Paddr is not aviliable,vaddr is 268340
Paddr is not aviliable,vaddr is 268380
Paddr is not aviliable,vaddr is 2683c0
Paddr is not aviliable,vaddr is 268400
Paddr is not aviliable,vaddr is 268440
Paddr is not aviliable,vaddr is 268480
Paddr is not aviliable,vaddr is 2684c0
Paddr is not aviliable,vaddr is 268500
Paddr is not aviliable,vaddr is 268540
Paddr is not aviliable,vaddr is 268580
Paddr is not aviliable,vaddr is 2685c0
Paddr is not aviliable,vaddr is 268600
Paddr is not aviliable,vaddr is 268640
Paddr is not aviliable,vaddr is 268680
Paddr is not aviliable,vaddr is 2686c0
Paddr is not aviliable,vaddr is 268700
Paddr is not aviliable,vaddr is 268740
Paddr is not aviliable,vaddr is 268780
Paddr is not aviliable,vaddr is 2687c0
Paddr is not aviliable,vaddr is 268040
Paddr is not aviliable,vaddr is 268080
Paddr is not aviliable,vaddr is 2680c0
Paddr is not aviliable,vaddr is 268100
Paddr is not aviliable,vaddr is 268140
Paddr is not aviliable,vaddr is 268180
Paddr is not aviliable,vaddr is 2681c0
Paddr is not aviliable,vaddr is 268200
Paddr is not aviliable,vaddr is 268240
Paddr is not aviliable,vaddr is 268280
Paddr is not aviliable,vaddr is 2682c0
Paddr is not aviliable,vaddr is 268300
Paddr is not aviliable,vaddr is 268340
Paddr is not aviliable,vaddr is 268380
Paddr is not aviliable,vaddr is 2683c0
Paddr is not aviliable,vaddr is 268400
Paddr is not aviliable,vaddr is 268440
Paddr is not aviliable,vaddr is 268480
Paddr is not aviliable,vaddr is 2684c0
Paddr is not aviliable,vaddr is 268500
Paddr is not aviliable,vaddr is 268540
Paddr is not aviliable,vaddr is 268580
Paddr is not aviliable,vaddr is 2685c0
Paddr is not aviliable,vaddr is 268600
Paddr is not aviliable,vaddr is 268640
Paddr is not aviliable,vaddr is 268680
Paddr is not aviliable,vaddr is 2686c0
Paddr is not aviliable,vaddr is 268700
Paddr is not aviliable,vaddr is 268740
Paddr is not aviliable,vaddr is 268780
Paddr is not aviliable,vaddr is 2687c0
Paddr is not aviliable,vaddr is 268040
Paddr is not aviliable,vaddr is 268080
Paddr is not aviliable,vaddr is 2680c0
Paddr is not aviliable,vaddr is 268100
Paddr is not aviliable,vaddr is 268140
Paddr is not aviliable,vaddr is 268180
Paddr is not aviliable,vaddr is 2681c0
Paddr is not aviliable,vaddr is 268200
Paddr is not aviliable,vaddr is 268240
Paddr is not aviliable,vaddr is 268280
Paddr is not aviliable,vaddr is 2682c0
Paddr is not aviliable,vaddr is 268300
Paddr is not aviliable,vaddr is 268340
Paddr is not aviliable,vaddr is 268380
Paddr is not aviliable,vaddr is 2683c0
Paddr is not aviliable,vaddr is 268400
Paddr is not aviliable,vaddr is 268440
Paddr is not aviliable,vaddr is 268480
Paddr is not aviliable,vaddr is 2684c0
Paddr is not aviliable,vaddr is 268500
Paddr is not aviliable,vaddr is 268540
Paddr is not aviliable,vaddr is 268580
Paddr is not aviliable,vaddr is 2685c0
Paddr is not aviliable,vaddr is 268600
Paddr is not aviliable,vaddr is 268640
Paddr is not aviliable,vaddr is 268680
Paddr is not aviliable,vaddr is 2686c0
Paddr is not aviliable,vaddr is 268700
Paddr is not aviliable,vaddr is 268740
Paddr is not aviliable,vaddr is 268780
Paddr is not aviliable,vaddr is 2687c0
Paddr is not aviliable,vaddr is 268040
Paddr is not aviliable,vaddr is 268080
Paddr is not aviliable,vaddr is 2680c0
Paddr is not aviliable,vaddr is 268100
Paddr is not aviliable,vaddr is 268140
Paddr is not aviliable,vaddr is 268180
Paddr is not aviliable,vaddr is 2681c0
Paddr is not aviliable,vaddr is 268200
Paddr is not aviliable,vaddr is 268240
Paddr is not aviliable,vaddr is 268280
Paddr is not aviliable,vaddr is 2682c0
Paddr is not aviliable,vaddr is 268300
Paddr is not aviliable,vaddr is 268340
Paddr is not aviliable,vaddr is 268380
Paddr is not aviliable,vaddr is 2683c0
Paddr is not aviliable,vaddr is 268400
Paddr is not aviliable,vaddr is 268440
Paddr is not aviliable,vaddr is 268480
Paddr is not aviliable,vaddr is 2684c0
Paddr is not aviliable,vaddr is 268500
Paddr is not aviliable,vaddr is 268540
Paddr is not aviliable,vaddr is 268580
Paddr is not aviliable,vaddr is 2685c0
Paddr is not aviliable,vaddr is 268600
Paddr is not aviliable,vaddr is 268640
Paddr is not aviliable,vaddr is 268680
Paddr is not aviliable,vaddr is 2686c0
Paddr is not aviliable,vaddr is 268700
Paddr is not aviliable,vaddr is 268740
Paddr is not aviliable,vaddr is 268780
Paddr is not aviliable,vaddr is 2687c0
Paddr is not aviliable,vaddr is 268040
Paddr is not aviliable,vaddr is 268080
Paddr is not aviliable,vaddr is 2680c0
Paddr is not aviliable,vaddr is 268100
Paddr is not aviliable,vaddr is 268140
Paddr is not aviliable,vaddr is 268180
Paddr is not aviliable,vaddr is 2681c0
Paddr is not aviliable,vaddr is 268200
Paddr is not aviliable,vaddr is 268240
Paddr is not aviliable,vaddr is 268280
Paddr is not aviliable,vaddr is 2682c0
Paddr is not aviliable,vaddr is 268300
Paddr is not aviliable,vaddr is 268340
Paddr is not aviliable,vaddr is 268380
Paddr is not aviliable,vaddr is 2683c0
Paddr is not aviliable,vaddr is 268400
Paddr is not aviliable,vaddr is 268440
Paddr is not aviliable,vaddr is 268480
Paddr is not aviliable,vaddr is 2684c0
Paddr is not aviliable,vaddr is 268500
Paddr is not aviliable,vaddr is 268540
Paddr is not aviliable,vaddr is 268580
Paddr is not aviliable,vaddr is 2685c0
Paddr is not aviliable,vaddr is 268600
Paddr is not aviliable,vaddr is 268640
Paddr is not aviliable,vaddr is 268680
Paddr is not aviliable,vaddr is 2686c0
Paddr is not aviliable,vaddr is 268700
Paddr is not aviliable,vaddr is 268740
Paddr is not aviliable,vaddr is 268780
Paddr is not aviliable,vaddr is 2687c0
Paddr is not aviliable,vaddr is 268040
Paddr is not aviliable,vaddr is 268080
Paddr is not aviliable,vaddr is 2680c0
Paddr is not aviliable,vaddr is 268100
Paddr is not aviliable,vaddr is 268140
Paddr is not aviliable,vaddr is 268180
Paddr is not aviliable,vaddr is 2681c0
Paddr is not aviliable,vaddr is 268200
Paddr is not aviliable,vaddr is 268240
Paddr is not aviliable,vaddr is 268280
Paddr is not aviliable,vaddr is 2682c0
Paddr is not aviliable,vaddr is 268300
Paddr is not aviliable,vaddr is 268340
Paddr is not aviliable,vaddr is 268380
Paddr is not aviliable,vaddr is 2683c0
Paddr is not aviliable,vaddr is 268400
Paddr is not aviliable,vaddr is 268440
Paddr is not aviliable,vaddr is 268480
Paddr is not aviliable,vaddr is 2684c0
Paddr is not aviliable,vaddr is 268500
Paddr is not aviliable,vaddr is 268540
Paddr is not aviliable,vaddr is 268580
Paddr is not aviliable,vaddr is 2685c0
Paddr is not aviliable,vaddr is 268600
Paddr is not aviliable,vaddr is 268640
Paddr is not aviliable,vaddr is 268680
Paddr is not aviliable,vaddr is 2686c0
Paddr is not aviliable,vaddr is 268700
Paddr is not aviliable,vaddr is 268740
Paddr is not aviliable,vaddr is 268780
Paddr is not aviliable,vaddr is 2687c0
Paddr is not aviliable,vaddr is 268040
Paddr is not aviliable,vaddr is 268080
Paddr is not aviliable,vaddr is 2680c0
Paddr is not aviliable,vaddr is 268100
Paddr is not aviliable,vaddr is 268140
Paddr is not aviliable,vaddr is 268180
Paddr is not aviliable,vaddr is 2681c0
Paddr is not aviliable,vaddr is 268200
Paddr is not aviliable,vaddr is 268240
Paddr is not aviliable,vaddr is 268280
Paddr is not aviliable,vaddr is 2682c0
Paddr is not aviliable,vaddr is 268300
Paddr is not aviliable,vaddr is 268340
Paddr is not aviliable,vaddr is 268380
Paddr is not aviliable,vaddr is 2683c0
Paddr is not aviliable,vaddr is 268400
Paddr is not aviliable,vaddr is 268440
Paddr is not aviliable,vaddr is 268480
Paddr is not aviliable,vaddr is 2684c0
Paddr is not aviliable,vaddr is 268500
Paddr is not aviliable,vaddr is 268540
Paddr is not aviliable,vaddr is 268580
Paddr is not aviliable,vaddr is 2685c0
Paddr is not aviliable,vaddr is 268600
Paddr is not aviliable,vaddr is 268640
Paddr is not aviliable,vaddr is 268680
Paddr is not aviliable,vaddr is 2686c0
Paddr is not aviliable,vaddr is 268700
Paddr is not aviliable,vaddr is 268740
Paddr is not aviliable,vaddr is 268780
Paddr is not aviliable,vaddr is 2687c0
Paddr is not aviliable,vaddr is 268040
Paddr is not aviliable,vaddr is 268080
Paddr is not aviliable,vaddr is 2680c0
Paddr is not aviliable,vaddr is 268100
Paddr is not aviliable,vaddr is 268140
Paddr is not aviliable,vaddr is 268180
Paddr is not aviliable,vaddr is 2681c0
Paddr is not aviliable,vaddr is 268200
Paddr is not aviliable,vaddr is 268240
Paddr is not aviliable,vaddr is 268280
Paddr is not aviliable,vaddr is 2682c0
Paddr is not aviliable,vaddr is 268300
Paddr is not aviliable,vaddr is 268340
Paddr is not aviliable,vaddr is 268380
Paddr is not aviliable,vaddr is 2683c0
Paddr is not aviliable,vaddr is 268400
Paddr is not aviliable,vaddr is 268440
Paddr is not aviliable,vaddr is 268480
Paddr is not aviliable,vaddr is 2684c0
Paddr is not aviliable,vaddr is 268500
Paddr is not aviliable,vaddr is 268540
Paddr is not aviliable,vaddr is 268580
Paddr is not aviliable,vaddr is 2685c0
Paddr is not aviliable,vaddr is 268600
Paddr is not aviliable,vaddr is 268640
Paddr is not aviliable,vaddr is 268680
Paddr is not aviliable,vaddr is 2686c0
Paddr is not aviliable,vaddr is 268700
Paddr is not aviliable,vaddr is 268740
Paddr is not aviliable,vaddr is 268780
Paddr is not aviliable,vaddr is 2687c0
Paddr is not aviliable,vaddr is 268040
Paddr is not aviliable,vaddr is 268080
Paddr is not aviliable,vaddr is 2680c0
Paddr is not aviliable,vaddr is 268100
Paddr is not aviliable,vaddr is 268140
Paddr is not aviliable,vaddr is 268180
Paddr is not aviliable,vaddr is 2681c0
Paddr is not aviliable,vaddr is 268200
Paddr is not aviliable,vaddr is 268240
Paddr is not aviliable,vaddr is 268280
Paddr is not aviliable,vaddr is 2682c0
Paddr is not aviliable,vaddr is 268300
Paddr is not aviliable,vaddr is 268340
Paddr is not aviliable,vaddr is 268380
Paddr is not aviliable,vaddr is 2683c0
Paddr is not aviliable,vaddr is 268400
Paddr is not aviliable,vaddr is 268440
Paddr is not aviliable,vaddr is 268480
Paddr is not aviliable,vaddr is 2684c0
Paddr is not aviliable,vaddr is 268500
Paddr is not aviliable,vaddr is 268540
Paddr is not aviliable,vaddr is 268580
Paddr is not aviliable,vaddr is 2685c0
Paddr is not aviliable,vaddr is 268600
Paddr is not aviliable,vaddr is 268640
Paddr is not aviliable,vaddr is 268680
Paddr is not aviliable,vaddr is 2686c0
Paddr is not aviliable,vaddr is 268700
Paddr is not aviliable,vaddr is 268740
Paddr is not aviliable,vaddr is 268780
Paddr is not aviliable,vaddr is 2687c0
Paddr is not aviliable,vaddr is 268040
Paddr is not aviliable,vaddr is 268080
Paddr is not aviliable,vaddr is 2680c0
Paddr is not aviliable,vaddr is 268100
Paddr is not aviliable,vaddr is 268140
Paddr is not aviliable,vaddr is 268180
Paddr is not aviliable,vaddr is 2681c0
Paddr is not aviliable,vaddr is 268200
Paddr is not aviliable,vaddr is 268240
Paddr is not aviliable,vaddr is 268280
Paddr is not aviliable,vaddr is 2682c0
Paddr is not aviliable,vaddr is 268300
Paddr is not aviliable,vaddr is 268340
Paddr is not aviliable,vaddr is 268380
Paddr is not aviliable,vaddr is 2683c0
Paddr is not aviliable,vaddr is 268400
Paddr is not aviliable,vaddr is 268440
Paddr is not aviliable,vaddr is 268480
Paddr is not aviliable,vaddr is 2684c0
Paddr is not aviliable,vaddr is 268500
Paddr is not aviliable,vaddr is 268540
Paddr is not aviliable,vaddr is 268580
Paddr is not aviliable,vaddr is 2685c0
Paddr is not aviliable,vaddr is 268600
Paddr is not aviliable,vaddr is 268640
Paddr is not aviliable,vaddr is 268680
Paddr is not aviliable,vaddr is 2686c0
Paddr is not aviliable,vaddr is 268700
Paddr is not aviliable,vaddr is 268740
Paddr is not aviliable,vaddr is 268780
Paddr is not aviliable,vaddr is 2687c0
Paddr is not aviliable,vaddr is 268040
Paddr is not aviliable,vaddr is 268080
Paddr is not aviliable,vaddr is 2680c0
Paddr is not aviliable,vaddr is 268100
Paddr is not aviliable,vaddr is 268140
Paddr is not aviliable,vaddr is 268180
Paddr is not aviliable,vaddr is 2681c0
Paddr is not aviliable,vaddr is 268200
Paddr is not aviliable,vaddr is 268240
Paddr is not aviliable,vaddr is 268280
Paddr is not aviliable,vaddr is 2682c0
Paddr is not aviliable,vaddr is 268300
Paddr is not aviliable,vaddr is 268340
Paddr is not aviliable,vaddr is 268380
Paddr is not aviliable,vaddr is 2683c0
Paddr is not aviliable,vaddr is 268400
Paddr is not aviliable,vaddr is 268440
Paddr is not aviliable,vaddr is 268480
Paddr is not aviliable,vaddr is 2684c0
Paddr is not aviliable,vaddr is 268500
Paddr is not aviliable,vaddr is 268540
Paddr is not aviliable,vaddr is 268580
Paddr is not aviliable,vaddr is 2685c0
Paddr is not aviliable,vaddr is 268600
Paddr is not aviliable,vaddr is 268640
Paddr is not aviliable,vaddr is 268680
Paddr is not aviliable,vaddr is 2686c0
Paddr is not aviliable,vaddr is 268700
Paddr is not aviliable,vaddr is 268740
Paddr is not aviliable,vaddr is 268780
Paddr is not aviliable,vaddr is 2687c0
Paddr is not aviliable,vaddr is 268040
Paddr is not aviliable,vaddr is 268080
Paddr is not aviliable,vaddr is 2680c0
Paddr is not aviliable,vaddr is 268100
Paddr is not aviliable,vaddr is 268140
Paddr is not aviliable,vaddr is 268180
Paddr is not aviliable,vaddr is 2681c0
Paddr is not aviliable,vaddr is 268200
Paddr is not aviliable,vaddr is 268240
Paddr is not aviliable,vaddr is 268280
Paddr is not aviliable,vaddr is 2682c0
Paddr is not aviliable,vaddr is 268300
Paddr is not aviliable,vaddr is 268340
Paddr is not aviliable,vaddr is 268380
Paddr is not aviliable,vaddr is 2683c0
Paddr is not aviliable,vaddr is 268400
Paddr is not aviliable,vaddr is 268440
Paddr is not aviliable,vaddr is 268480
Paddr is not aviliable,vaddr is 2684c0
Paddr is not aviliable,vaddr is 268500
Paddr is not aviliable,vaddr is 268540
Paddr is not aviliable,vaddr is 268580
Paddr is not aviliable,vaddr is 2685c0
Paddr is not aviliable,vaddr is 268600
Paddr is not aviliable,vaddr is 268640
Paddr is not aviliable,vaddr is 268680
Paddr is not aviliable,vaddr is 2686c0
Paddr is not aviliable,vaddr is 268700
Paddr is not aviliable,vaddr is 268740
Paddr is not aviliable,vaddr is 268780
Paddr is not aviliable,vaddr is 2687c0
Paddr is not aviliable,vaddr is 268040
Paddr is not aviliable,vaddr is 268080
Paddr is not aviliable,vaddr is 2680c0
Paddr is not aviliable,vaddr is 268100
Paddr is not aviliable,vaddr is 268140
Paddr is not aviliable,vaddr is 268180
Paddr is not aviliable,vaddr is 2681c0
Paddr is not aviliable,vaddr is 268200
Paddr is not aviliable,vaddr is 268240
Paddr is not aviliable,vaddr is 268280
Paddr is not aviliable,vaddr is 2682c0
Paddr is not aviliable,vaddr is 268300
Paddr is not aviliable,vaddr is 268340
Paddr is not aviliable,vaddr is 268380
Paddr is not aviliable,vaddr is 2683c0
Paddr is not aviliable,vaddr is 268400
Paddr is not aviliable,vaddr is 268440
Paddr is not aviliable,vaddr is 268480
Paddr is not aviliable,vaddr is 2684c0
Paddr is not aviliable,vaddr is 268500
Paddr is not aviliable,vaddr is 268540
Paddr is not aviliable,vaddr is 268580
Paddr is not aviliable,vaddr is 2685c0
Paddr is not aviliable,vaddr is 268600
Paddr is not aviliable,vaddr is 268640
Paddr is not aviliable,vaddr is 268680
Paddr is not aviliable,vaddr is 2686c0
Paddr is not aviliable,vaddr is 268700
Paddr is not aviliable,vaddr is 268740
Paddr is not aviliable,vaddr is 268780
Paddr is not aviliable,vaddr is 2687c0
Paddr is not aviliable,vaddr is 268040
Paddr is not aviliable,vaddr is 268080
Paddr is not aviliable,vaddr is 2680c0
Paddr is not aviliable,vaddr is 268100
Paddr is not aviliable,vaddr is 268140
Paddr is not aviliable,vaddr is 268180
Paddr is not aviliable,vaddr is 2681c0
Paddr is not aviliable,vaddr is 268200
Paddr is not aviliable,vaddr is 268240
Paddr is not aviliable,vaddr is 268280
Paddr is not aviliable,vaddr is 2682c0
Paddr is not aviliable,vaddr is 268300
Paddr is not aviliable,vaddr is 268340
Paddr is not aviliable,vaddr is 268380
Paddr is not aviliable,vaddr is 2683c0
Paddr is not aviliable,vaddr is 268400
Paddr is not aviliable,vaddr is 268440
Paddr is not aviliable,vaddr is 268480
Paddr is not aviliable,vaddr is 2684c0
Paddr is not aviliable,vaddr is 268500
Paddr is not aviliable,vaddr is 268540
Paddr is not aviliable,vaddr is 268580
Paddr is not aviliable,vaddr is 2685c0
Paddr is not aviliable,vaddr is 268600
Paddr is not aviliable,vaddr is 268640
Paddr is not aviliable,vaddr is 268680
Paddr is not aviliable,vaddr is 2686c0
Paddr is not aviliable,vaddr is 268700
Paddr is not aviliable,vaddr is 268740
Paddr is not aviliable,vaddr is 268780
Paddr is not aviliable,vaddr is 2687c0
Paddr is not aviliable,vaddr is 268040
Paddr is not aviliable,vaddr is 268080
Paddr is not aviliable,vaddr is 2680c0
Paddr is not aviliable,vaddr is 268100
Paddr is not aviliable,vaddr is 268140
Paddr is not aviliable,vaddr is 268180
Paddr is not aviliable,vaddr is 2681c0
Paddr is not aviliable,vaddr is 268200
Paddr is not aviliable,vaddr is 268240
Paddr is not aviliable,vaddr is 268280
Paddr is not aviliable,vaddr is 2682c0
Paddr is not aviliable,vaddr is 268300
Paddr is not aviliable,vaddr is 268340
Paddr is not aviliable,vaddr is 268380
Paddr is not aviliable,vaddr is 2683c0
Paddr is not aviliable,vaddr is 268400
Paddr is not aviliable,vaddr is 268440
Paddr is not aviliable,vaddr is 268480
Paddr is not aviliable,vaddr is 2684c0
Paddr is not aviliable,vaddr is 268500
Paddr is not aviliable,vaddr is 268540
Paddr is not aviliable,vaddr is 268580
Paddr is not aviliable,vaddr is 2685c0
Paddr is not aviliable,vaddr is 268600
Paddr is not aviliable,vaddr is 268640
Paddr is not aviliable,vaddr is 268680
Paddr is not aviliable,vaddr is 2686c0
Paddr is not aviliable,vaddr is 268700
Paddr is not aviliable,vaddr is 268740
Paddr is not aviliable,vaddr is 268780
Paddr is not aviliable,vaddr is 2687c0
Paddr is not aviliable,vaddr is 268040
Paddr is not aviliable,vaddr is 268080
Paddr is not aviliable,vaddr is 2680c0
Paddr is not aviliable,vaddr is 268100
Paddr is not aviliable,vaddr is 268140
Paddr is not aviliable,vaddr is 268180
Paddr is not aviliable,vaddr is 2681c0
Paddr is not aviliable,vaddr is 268200
Paddr is not aviliable,vaddr is 268240
Paddr is not aviliable,vaddr is 268280
Paddr is not aviliable,vaddr is 2682c0
Paddr is not aviliable,vaddr is 268300
Paddr is not aviliable,vaddr is 268340
Paddr is not aviliable,vaddr is 268380
Paddr is not aviliable,vaddr is 2683c0
Paddr is not aviliable,vaddr is 268400
Paddr is not aviliable,vaddr is 268440
Paddr is not aviliable,vaddr is 268480
Paddr is not aviliable,vaddr is 2684c0
Paddr is not aviliable,vaddr is 268500
Paddr is not aviliable,vaddr is 268540
Paddr is not aviliable,vaddr is 268580
Paddr is not aviliable,vaddr is 2685c0
Paddr is not aviliable,vaddr is 268600
Paddr is not aviliable,vaddr is 268640
Paddr is not aviliable,vaddr is 268680
Paddr is not aviliable,vaddr is 2686c0
Paddr is not aviliable,vaddr is 268700
Paddr is not aviliable,vaddr is 268740
Paddr is not aviliable,vaddr is 268780
Paddr is not aviliable,vaddr is 2687c0
Paddr is not aviliable,vaddr is 268040
Paddr is not aviliable,vaddr is 268080
Paddr is not aviliable,vaddr is 2680c0
Paddr is not aviliable,vaddr is 268100
Paddr is not aviliable,vaddr is 268140
Paddr is not aviliable,vaddr is 268180
Paddr is not aviliable,vaddr is 2681c0
Paddr is not aviliable,vaddr is 268200
Paddr is not aviliable,vaddr is 268240
Paddr is not aviliable,vaddr is 268280
Paddr is not aviliable,vaddr is 2682c0
Paddr is not aviliable,vaddr is 268300
Paddr is not aviliable,vaddr is 268340
Paddr is not aviliable,vaddr is 268380
Paddr is not aviliable,vaddr is 2683c0
Paddr is not aviliable,vaddr is 268400
Paddr is not aviliable,vaddr is 268440
Paddr is not aviliable,vaddr is 268480
Paddr is not aviliable,vaddr is 2684c0
Paddr is not aviliable,vaddr is 268500
Paddr is not aviliable,vaddr is 268540
Paddr is not aviliable,vaddr is 268580
Paddr is not aviliable,vaddr is 2685c0
Paddr is not aviliable,vaddr is 268600
Paddr is not aviliable,vaddr is 268640
Paddr is not aviliable,vaddr is 268680
Paddr is not aviliable,vaddr is 2686c0
Paddr is not aviliable,vaddr is 268700
Paddr is not aviliable,vaddr is 268740
Paddr is not aviliable,vaddr is 268780
Paddr is not aviliable,vaddr is 2687c0
Paddr is not aviliable,vaddr is 268040
Paddr is not aviliable,vaddr is 268080
Paddr is not aviliable,vaddr is 2680c0
Paddr is not aviliable,vaddr is 268100
Paddr is not aviliable,vaddr is 268140
Paddr is not aviliable,vaddr is 268180
Paddr is not aviliable,vaddr is 2681c0
Paddr is not aviliable,vaddr is 268200
Paddr is not aviliable,vaddr is 268240
Paddr is not aviliable,vaddr is 268280
Paddr is not aviliable,vaddr is 2682c0
Paddr is not aviliable,vaddr is 268300
Paddr is not aviliable,vaddr is 268340
Paddr is not aviliable,vaddr is 268380
Paddr is not aviliable,vaddr is 2683c0
Paddr is not aviliable,vaddr is 268400
Paddr is not aviliable,vaddr is 268440
Paddr is not aviliable,vaddr is 268480
Paddr is not aviliable,vaddr is 2684c0
Paddr is not aviliable,vaddr is 268500
Paddr is not aviliable,vaddr is 268540
Paddr is not aviliable,vaddr is 268580
Paddr is not aviliable,vaddr is 2685c0
Paddr is not aviliable,vaddr is 268600
Paddr is not aviliable,vaddr is 268640
Paddr is not aviliable,vaddr is 268680
Paddr is not aviliable,vaddr is 2686c0
Paddr is not aviliable,vaddr is 268700
Paddr is not aviliable,vaddr is 268740
Paddr is not aviliable,vaddr is 268780
Paddr is not aviliable,vaddr is 2687c0
Paddr is not aviliable,vaddr is 268040
Paddr is not aviliable,vaddr is 268080
Paddr is not aviliable,vaddr is 2680c0
Paddr is not aviliable,vaddr is 268100
Paddr is not aviliable,vaddr is 268140
Paddr is not aviliable,vaddr is 268180
Paddr is not aviliable,vaddr is 2681c0
Paddr is not aviliable,vaddr is 268200
Paddr is not aviliable,vaddr is 268240
Paddr is not aviliable,vaddr is 268280
Paddr is not aviliable,vaddr is 2682c0
Paddr is not aviliable,vaddr is 268300
Paddr is not aviliable,vaddr is 268340
Paddr is not aviliable,vaddr is 268380
Paddr is not aviliable,vaddr is 2683c0
Paddr is not aviliable,vaddr is 268400
Paddr is not aviliable,vaddr is 268440
Paddr is not aviliable,vaddr is 268480
Paddr is not aviliable,vaddr is 2684c0
Paddr is not aviliable,vaddr is 268500
Paddr is not aviliable,vaddr is 268540
Paddr is not aviliable,vaddr is 268580
Paddr is not aviliable,vaddr is 2685c0
Paddr is not aviliable,vaddr is 268600
Paddr is not aviliable,vaddr is 268640
Paddr is not aviliable,vaddr is 268680
Paddr is not aviliable,vaddr is 2686c0
Paddr is not aviliable,vaddr is 268700
Paddr is not aviliable,vaddr is 268740
Paddr is not aviliable,vaddr is 268780
Paddr is not aviliable,vaddr is 2687c0
Paddr is not aviliable,vaddr is 268040
Paddr is not aviliable,vaddr is 268080
Paddr is not aviliable,vaddr is 2680c0
Paddr is not aviliable,vaddr is 268100
Paddr is not aviliable,vaddr is 268140
Paddr is not aviliable,vaddr is 268180
Paddr is not aviliable,vaddr is 2681c0
Paddr is not aviliable,vaddr is 268200
Paddr is not aviliable,vaddr is 268240
Paddr is not aviliable,vaddr is 268280
Paddr is not aviliable,vaddr is 2682c0
Paddr is not aviliable,vaddr is 268300
Paddr is not aviliable,vaddr is 268340
Paddr is not aviliable,vaddr is 268380
Paddr is not aviliable,vaddr is 2683c0
Paddr is not aviliable,vaddr is 268400
Paddr is not aviliable,vaddr is 268440
Paddr is not aviliable,vaddr is 268480
Paddr is not aviliable,vaddr is 2684c0
Paddr is not aviliable,vaddr is 268500
Paddr is not aviliable,vaddr is 268540
Paddr is not aviliable,vaddr is 268580
Paddr is not aviliable,vaddr is 2685c0
Paddr is not aviliable,vaddr is 268600
Paddr is not aviliable,vaddr is 268640
Paddr is not aviliable,vaddr is 268680
Paddr is not aviliable,vaddr is 2686c0
Paddr is not aviliable,vaddr is 268700
Paddr is not aviliable,vaddr is 268740
Paddr is not aviliable,vaddr is 268780
Paddr is not aviliable,vaddr is 2687c0
Paddr is not aviliable,vaddr is 268040
Paddr is not aviliable,vaddr is 268080
Paddr is not aviliable,vaddr is 2680c0
Paddr is not aviliable,vaddr is 268100
Paddr is not aviliable,vaddr is 268140
Paddr is not aviliable,vaddr is 268180
Paddr is not aviliable,vaddr is 2681c0
Paddr is not aviliable,vaddr is 268200
Paddr is not aviliable,vaddr is 268240
Paddr is not aviliable,vaddr is 268280
Paddr is not aviliable,vaddr is 2682c0
Paddr is not aviliable,vaddr is 268300
Paddr is not aviliable,vaddr is 268340
Paddr is not aviliable,vaddr is 268380
Paddr is not aviliable,vaddr is 2683c0
Paddr is not aviliable,vaddr is 268400
Paddr is not aviliable,vaddr is 268440
Paddr is not aviliable,vaddr is 268480
Paddr is not aviliable,vaddr is 2684c0
Paddr is not aviliable,vaddr is 268500
Paddr is not aviliable,vaddr is 268540
Paddr is not aviliable,vaddr is 268580
Paddr is not aviliable,vaddr is 2685c0
Paddr is not aviliable,vaddr is 268600
Paddr is not aviliable,vaddr is 268640
Paddr is not aviliable,vaddr is 268680
Paddr is not aviliable,vaddr is 2686c0
Paddr is not aviliable,vaddr is 268700
Paddr is not aviliable,vaddr is 268740
Paddr is not aviliable,vaddr is 268780
Paddr is not aviliable,vaddr is 2687c0
Paddr is not aviliable,vaddr is 268040
Paddr is not aviliable,vaddr is 268080
Paddr is not aviliable,vaddr is 2680c0
Paddr is not aviliable,vaddr is 268100
Paddr is not aviliable,vaddr is 268140
Paddr is not aviliable,vaddr is 268180
Paddr is not aviliable,vaddr is 2681c0
Paddr is not aviliable,vaddr is 268200
Paddr is not aviliable,vaddr is 268240
Paddr is not aviliable,vaddr is 268280
Paddr is not aviliable,vaddr is 2682c0
Paddr is not aviliable,vaddr is 268300
Paddr is not aviliable,vaddr is 268340
Paddr is not aviliable,vaddr is 268380
Paddr is not aviliable,vaddr is 2683c0
Paddr is not aviliable,vaddr is 268400
Paddr is not aviliable,vaddr is 268440
Paddr is not aviliable,vaddr is 268480
Paddr is not aviliable,vaddr is 2684c0
Paddr is not aviliable,vaddr is 268500
Paddr is not aviliable,vaddr is 268540
Paddr is not aviliable,vaddr is 268580
Paddr is not aviliable,vaddr is 2685c0
Paddr is not aviliable,vaddr is 268600
Paddr is not aviliable,vaddr is 268640
Paddr is not aviliable,vaddr is 268680
Paddr is not aviliable,vaddr is 2686c0
Paddr is not aviliable,vaddr is 268700
Paddr is not aviliable,vaddr is 268740
Paddr is not aviliable,vaddr is 268780
Paddr is not aviliable,vaddr is 2687c0
Paddr is not aviliable,vaddr is 268040
Paddr is not aviliable,vaddr is 268080
Paddr is not aviliable,vaddr is 2680c0
Paddr is not aviliable,vaddr is 268100
Paddr is not aviliable,vaddr is 268140
Paddr is not aviliable,vaddr is 268180
Paddr is not aviliable,vaddr is 2681c0
Paddr is not aviliable,vaddr is 268200
Paddr is not aviliable,vaddr is 268240
Paddr is not aviliable,vaddr is 268280
Paddr is not aviliable,vaddr is 2682c0
Paddr is not aviliable,vaddr is 268300
Paddr is not aviliable,vaddr is 268340
Paddr is not aviliable,vaddr is 268380
Paddr is not aviliable,vaddr is 2683c0
Paddr is not aviliable,vaddr is 268400
Paddr is not aviliable,vaddr is 268440
Paddr is not aviliable,vaddr is 268480
Paddr is not aviliable,vaddr is 2684c0
Paddr is not aviliable,vaddr is 268500
Paddr is not aviliable,vaddr is 268540
Paddr is not aviliable,vaddr is 268580
Paddr is not aviliable,vaddr is 2685c0
Paddr is not aviliable,vaddr is 268600
Paddr is not aviliable,vaddr is 268640
Paddr is not aviliable,vaddr is 268680
Paddr is not aviliable,vaddr is 2686c0
Paddr is not aviliable,vaddr is 268700
Paddr is not aviliable,vaddr is 268740
Paddr is not aviliable,vaddr is 268780
Paddr is not aviliable,vaddr is 2687c0
Paddr is not aviliable,vaddr is 268040
Paddr is not aviliable,vaddr is 268080
Paddr is not aviliable,vaddr is 2680c0
Paddr is not aviliable,vaddr is 268100
Paddr is not aviliable,vaddr is 268140
Paddr is not aviliable,vaddr is 268180
Paddr is not aviliable,vaddr is 2681c0
Paddr is not aviliable,vaddr is 268200
Paddr is not aviliable,vaddr is 268240
Paddr is not aviliable,vaddr is 268280
Paddr is not aviliable,vaddr is 2682c0
Paddr is not aviliable,vaddr is 268300
Paddr is not aviliable,vaddr is 268340
Paddr is not aviliable,vaddr is 268380
Paddr is not aviliable,vaddr is 2683c0
Paddr is not aviliable,vaddr is 268400
Paddr is not aviliable,vaddr is 268440
Paddr is not aviliable,vaddr is 268480
Paddr is not aviliable,vaddr is 2684c0
Paddr is not aviliable,vaddr is 268500
Paddr is not aviliable,vaddr is 268540
Paddr is not aviliable,vaddr is 268580
Paddr is not aviliable,vaddr is 2685c0
Paddr is not aviliable,vaddr is 268600
Paddr is not aviliable,vaddr is 268640
Paddr is not aviliable,vaddr is 268680
Paddr is not aviliable,vaddr is 2686c0
Paddr is not aviliable,vaddr is 268700
Paddr is not aviliable,vaddr is 268740
Paddr is not aviliable,vaddr is 268780
Paddr is not aviliable,vaddr is 2687c0
Paddr is not aviliable,vaddr is 268040
Paddr is not aviliable,vaddr is 268080
Paddr is not aviliable,vaddr is 2680c0
Paddr is not aviliable,vaddr is 268100
Paddr is not aviliable,vaddr is 268140
Paddr is not aviliable,vaddr is 268180
Paddr is not aviliable,vaddr is 2681c0
Paddr is not aviliable,vaddr is 268200
Paddr is not aviliable,vaddr is 268240
Paddr is not aviliable,vaddr is 268280
Paddr is not aviliable,vaddr is 2682c0
Paddr is not aviliable,vaddr is 268300
Paddr is not aviliable,vaddr is 268340
Paddr is not aviliable,vaddr is 268380
Paddr is not aviliable,vaddr is 2683c0
Paddr is not aviliable,vaddr is 268400
Paddr is not aviliable,vaddr is 268440
Paddr is not aviliable,vaddr is 268480
Paddr is not aviliable,vaddr is 2684c0
Paddr is not aviliable,vaddr is 268500
Paddr is not aviliable,vaddr is 268540
Paddr is not aviliable,vaddr is 268580
Paddr is not aviliable,vaddr is 2685c0
Paddr is not aviliable,vaddr is 268600
Paddr is not aviliable,vaddr is 268640
Paddr is not aviliable,vaddr is 268680
Paddr is not aviliable,vaddr is 2686c0
Paddr is not aviliable,vaddr is 268700
Paddr is not aviliable,vaddr is 268740
Paddr is not aviliable,vaddr is 268780
Paddr is not aviliable,vaddr is 2687c0
Paddr is not aviliable,vaddr is 268040
Paddr is not aviliable,vaddr is 268080
Paddr is not aviliable,vaddr is 2680c0
Paddr is not aviliable,vaddr is 268100
Paddr is not aviliable,vaddr is 268140
Paddr is not aviliable,vaddr is 268180
Paddr is not aviliable,vaddr is 2681c0
Paddr is not aviliable,vaddr is 268200
Paddr is not aviliable,vaddr is 268240
Paddr is not aviliable,vaddr is 268280
Paddr is not aviliable,vaddr is 2682c0
Paddr is not aviliable,vaddr is 268300
Paddr is not aviliable,vaddr is 268340
Paddr is not aviliable,vaddr is 268380
Paddr is not aviliable,vaddr is 2683c0
Paddr is not aviliable,vaddr is 268400
Paddr is not aviliable,vaddr is 268440
Paddr is not aviliable,vaddr is 268480
Paddr is not aviliable,vaddr is 2684c0
Paddr is not aviliable,vaddr is 268500
Paddr is not aviliable,vaddr is 268540
Paddr is not aviliable,vaddr is 268580
Paddr is not aviliable,vaddr is 2685c0
Paddr is not aviliable,vaddr is 268600
Paddr is not aviliable,vaddr is 268640
Paddr is not aviliable,vaddr is 268680
Paddr is not aviliable,vaddr is 2686c0
Paddr is not aviliable,vaddr is 268700
Paddr is not aviliable,vaddr is 268740
Paddr is not aviliable,vaddr is 268780
Paddr is not aviliable,vaddr is 2687c0
Paddr is not aviliable,vaddr is 268040
Paddr is not aviliable,vaddr is 268080
Paddr is not aviliable,vaddr is 2680c0
Paddr is not aviliable,vaddr is 268100
Paddr is not aviliable,vaddr is 268140
Paddr is not aviliable,vaddr is 268180
Paddr is not aviliable,vaddr is 2681c0
Paddr is not aviliable,vaddr is 268200
Paddr is not aviliable,vaddr is 268240
Paddr is not aviliable,vaddr is 268280
Paddr is not aviliable,vaddr is 2682c0
Paddr is not aviliable,vaddr is 268300
Paddr is not aviliable,vaddr is 268340
Paddr is not aviliable,vaddr is 268380
Paddr is not aviliable,vaddr is 2683c0
Paddr is not aviliable,vaddr is 268400
Paddr is not aviliable,vaddr is 268440
Paddr is not aviliable,vaddr is 268480
Paddr is not aviliable,vaddr is 2684c0
Paddr is not aviliable,vaddr is 268500
Paddr is not aviliable,vaddr is 268540
Paddr is not aviliable,vaddr is 268580
Paddr is not aviliable,vaddr is 2685c0
Paddr is not aviliable,vaddr is 268600
Paddr is not aviliable,vaddr is 268640
Paddr is not aviliable,vaddr is 268680
Paddr is not aviliable,vaddr is 2686c0
Paddr is not aviliable,vaddr is 268700
Paddr is not aviliable,vaddr is 268740
Paddr is not aviliable,vaddr is 268780
Paddr is not aviliable,vaddr is 2687c0
Paddr is not aviliable,vaddr is 268040
Paddr is not aviliable,vaddr is 268080
Paddr is not aviliable,vaddr is 2680c0
Paddr is not aviliable,vaddr is 268100
Paddr is not aviliable,vaddr is 268140
Paddr is not aviliable,vaddr is 268180
Paddr is not aviliable,vaddr is 2681c0
Paddr is not aviliable,vaddr is 268200
Paddr is not aviliable,vaddr is 268240
Paddr is not aviliable,vaddr is 268280
Paddr is not aviliable,vaddr is 2682c0
Paddr is not aviliable,vaddr is 268300
Paddr is not aviliable,vaddr is 268340
Paddr is not aviliable,vaddr is 268380
Paddr is not aviliable,vaddr is 2683c0
Paddr is not aviliable,vaddr is 268400
Paddr is not aviliable,vaddr is 268440
Paddr is not aviliable,vaddr is 268480
Paddr is not aviliable,vaddr is 2684c0
Paddr is not aviliable,vaddr is 268500
Paddr is not aviliable,vaddr is 268540
Paddr is not aviliable,vaddr is 268580
Paddr is not aviliable,vaddr is 2685c0
Paddr is not aviliable,vaddr is 268600
Paddr is not aviliable,vaddr is 268640
Paddr is not aviliable,vaddr is 268680
Paddr is not aviliable,vaddr is 2686c0
Paddr is not aviliable,vaddr is 268700
Paddr is not aviliable,vaddr is 268740
Paddr is not aviliable,vaddr is 268780
Paddr is not aviliable,vaddr is 2687c0
Paddr is not aviliable,vaddr is 268040
Paddr is not aviliable,vaddr is 268080
Paddr is not aviliable,vaddr is 2680c0
Paddr is not aviliable,vaddr is 268100
Paddr is not aviliable,vaddr is 268140
Paddr is not aviliable,vaddr is 268180
Paddr is not aviliable,vaddr is 2681c0
Paddr is not aviliable,vaddr is 268200
Paddr is not aviliable,vaddr is 268240
Paddr is not aviliable,vaddr is 268280
Paddr is not aviliable,vaddr is 2682c0
Paddr is not aviliable,vaddr is 268300
Paddr is not aviliable,vaddr is 268340
Paddr is not aviliable,vaddr is 268380
Paddr is not aviliable,vaddr is 2683c0
Paddr is not aviliable,vaddr is 268400
Paddr is not aviliable,vaddr is 268440
Paddr is not aviliable,vaddr is 268480
Paddr is not aviliable,vaddr is 2684c0
Paddr is not aviliable,vaddr is 268500
Paddr is not aviliable,vaddr is 268540
Paddr is not aviliable,vaddr is 268580
Paddr is not aviliable,vaddr is 2685c0
Paddr is not aviliable,vaddr is 268600
Paddr is not aviliable,vaddr is 268640
Paddr is not aviliable,vaddr is 268680
Paddr is not aviliable,vaddr is 2686c0
Paddr is not aviliable,vaddr is 268700
Paddr is not aviliable,vaddr is 268740
Paddr is not aviliable,vaddr is 268780
Paddr is not aviliable,vaddr is 2687c0
Paddr is not aviliable,vaddr is 268040
Paddr is not aviliable,vaddr is 268080
Paddr is not aviliable,vaddr is 2680c0
Paddr is not aviliable,vaddr is 268100
Paddr is not aviliable,vaddr is 268140
Paddr is not aviliable,vaddr is 268180
Paddr is not aviliable,vaddr is 2681c0
Paddr is not aviliable,vaddr is 268200
Paddr is not aviliable,vaddr is 268240
Paddr is not aviliable,vaddr is 268280
Paddr is not aviliable,vaddr is 2682c0
Paddr is not aviliable,vaddr is 268300
Paddr is not aviliable,vaddr is 268340
Paddr is not aviliable,vaddr is 268380
Paddr is not aviliable,vaddr is 2683c0
Paddr is not aviliable,vaddr is 268400
Paddr is not aviliable,vaddr is 268440
Paddr is not aviliable,vaddr is 268480
Paddr is not aviliable,vaddr is 2684c0
Paddr is not aviliable,vaddr is 268500
Paddr is not aviliable,vaddr is 268540
Paddr is not aviliable,vaddr is 268580
Paddr is not aviliable,vaddr is 2685c0
Paddr is not aviliable,vaddr is 268600
Paddr is not aviliable,vaddr is 268640
Paddr is not aviliable,vaddr is 268680
Paddr is not aviliable,vaddr is 2686c0
Paddr is not aviliable,vaddr is 268700
Paddr is not aviliable,vaddr is 268740
Paddr is not aviliable,vaddr is 268780
Paddr is not aviliable,vaddr is 2687c0
Paddr is not aviliable,vaddr is 268040
Paddr is not aviliable,vaddr is 268080
Paddr is not aviliable,vaddr is 2680c0
Paddr is not aviliable,vaddr is 268100
Paddr is not aviliable,vaddr is 268140
Paddr is not aviliable,vaddr is 268180
Paddr is not aviliable,vaddr is 2681c0
Paddr is not aviliable,vaddr is 268200
Paddr is not aviliable,vaddr is 268240
Paddr is not aviliable,vaddr is 268280
Paddr is not aviliable,vaddr is 2682c0
Paddr is not aviliable,vaddr is 268300
Paddr is not aviliable,vaddr is 268340
Paddr is not aviliable,vaddr is 268380
Paddr is not aviliable,vaddr is 2683c0
Paddr is not aviliable,vaddr is 268400
Paddr is not aviliable,vaddr is 268440
Paddr is not aviliable,vaddr is 268480
Paddr is not aviliable,vaddr is 2684c0
Paddr is not aviliable,vaddr is 268500
Paddr is not aviliable,vaddr is 268540
Paddr is not aviliable,vaddr is 268580
Paddr is not aviliable,vaddr is 2685c0
Paddr is not aviliable,vaddr is 268600
Paddr is not aviliable,vaddr is 268640
Paddr is not aviliable,vaddr is 268680
Paddr is not aviliable,vaddr is 2686c0
Paddr is not aviliable,vaddr is 268700
Paddr is not aviliable,vaddr is 268740
Paddr is not aviliable,vaddr is 268780
Paddr is not aviliable,vaddr is 2687c0
Paddr is not aviliable,vaddr is 268040
Paddr is not aviliable,vaddr is 268080
Paddr is not aviliable,vaddr is 2680c0
Paddr is not aviliable,vaddr is 268100
Paddr is not aviliable,vaddr is 268140
Paddr is not aviliable,vaddr is 268180
Paddr is not aviliable,vaddr is 2681c0
Paddr is not aviliable,vaddr is 268200
Paddr is not aviliable,vaddr is 268240
Paddr is not aviliable,vaddr is 268280
Paddr is not aviliable,vaddr is 2682c0
Paddr is not aviliable,vaddr is 268300
Paddr is not aviliable,vaddr is 268340
Paddr is not aviliable,vaddr is 268380
Paddr is not aviliable,vaddr is 2683c0
Paddr is not aviliable,vaddr is 268400
Paddr is not aviliable,vaddr is 268440
Paddr is not aviliable,vaddr is 268480
Paddr is not aviliable,vaddr is 2684c0
Paddr is not aviliable,vaddr is 268500
Paddr is not aviliable,vaddr is 268540
Paddr is not aviliable,vaddr is 268580
Paddr is not aviliable,vaddr is 2685c0
Paddr is not aviliable,vaddr is 268600
Paddr is not aviliable,vaddr is 268640
Paddr is not aviliable,vaddr is 268680
Paddr is not aviliable,vaddr is 2686c0
Paddr is not aviliable,vaddr is 268700
Paddr is not aviliable,vaddr is 268740
Paddr is not aviliable,vaddr is 268780
Paddr is not aviliable,vaddr is 2687c0
Paddr is not aviliable,vaddr is 268040
Paddr is not aviliable,vaddr is 268080
Paddr is not aviliable,vaddr is 2680c0
Paddr is not aviliable,vaddr is 268100
Paddr is not aviliable,vaddr is 268140
Paddr is not aviliable,vaddr is 268180
Paddr is not aviliable,vaddr is 2681c0
Paddr is not aviliable,vaddr is 268200
Paddr is not aviliable,vaddr is 268240
Paddr is not aviliable,vaddr is 268280
Paddr is not aviliable,vaddr is 2682c0
Paddr is not aviliable,vaddr is 268300
Paddr is not aviliable,vaddr is 268340
Paddr is not aviliable,vaddr is 268380
Paddr is not aviliable,vaddr is 2683c0
Paddr is not aviliable,vaddr is 268400
Paddr is not aviliable,vaddr is 268440
Paddr is not aviliable,vaddr is 268480
Paddr is not aviliable,vaddr is 2684c0
Paddr is not aviliable,vaddr is 268500
Paddr is not aviliable,vaddr is 268540
Paddr is not aviliable,vaddr is 268580
Paddr is not aviliable,vaddr is 2685c0
Paddr is not aviliable,vaddr is 268600
Paddr is not aviliable,vaddr is 268640
Paddr is not aviliable,vaddr is 268680
Paddr is not aviliable,vaddr is 2686c0
Paddr is not aviliable,vaddr is 268700
Paddr is not aviliable,vaddr is 268740
Paddr is not aviliable,vaddr is 268780
Paddr is not aviliable,vaddr is 2687c0
Paddr is not aviliable,vaddr is 268040
Paddr is not aviliable,vaddr is 268080
Paddr is not aviliable,vaddr is 2680c0
Paddr is not aviliable,vaddr is 268100
Paddr is not aviliable,vaddr is 268140
Paddr is not aviliable,vaddr is 268180
Paddr is not aviliable,vaddr is 2681c0
Paddr is not aviliable,vaddr is 268200
Paddr is not aviliable,vaddr is 268240
Paddr is not aviliable,vaddr is 268280
Paddr is not aviliable,vaddr is 2682c0
Paddr is not aviliable,vaddr is 268300
Paddr is not aviliable,vaddr is 268340
[...]
Paddr is not aviliable,vaddr is 268580
Paddr is not aviliable,vaddr is 2685c0
Paddr is not aviliable,vaddr is 268600
Paddr is not aviliable,vaddr is 268640
Paddr is not aviliable,vaddr is 268680
Paddr is not aviliable,vaddr is 2686c0
Paddr is not aviliable,vaddr is 268700
Paddr is not aviliable,vaddr is 268740
Paddr is not aviliable,vaddr is 268780
Paddr is not aviliable,vaddr is 2687c0
Paddr is not aviliable,vaddr is 268040
Paddr is not aviliable,vaddr is 268080
Paddr is not aviliable,vaddr is 2680c0
Paddr is not aviliable,vaddr is 268100
Paddr is not aviliable,vaddr is 268140
Paddr is not aviliable,vaddr is 268180
Paddr is not aviliable,vaddr is 2681c0
Paddr is not aviliable,vaddr is 268200
Paddr is not aviliable,vaddr is 268240
Paddr is not aviliable,vaddr is 268280
Paddr is not aviliable,vaddr is 2682c0
Paddr is not aviliable,vaddr is 268300
Paddr is not aviliable,vaddr is 268340
Paddr is not aviliable,vaddr is 268380
Paddr is not aviliable,vaddr is 2683c0
Paddr is not aviliable,vaddr is 268400
Paddr is not aviliable,vaddr is 268440
Paddr is not aviliable,vaddr is 268480
Paddr is not aviliable,vaddr is 2684c0
Paddr is not aviliable,vaddr is 268500
Paddr is not aviliable,vaddr is 268540
Paddr is not aviliable,vaddr is 268580
Paddr is not aviliable,vaddr is 2685c0
Paddr is not aviliable,vaddr is 268600
Paddr is not aviliable,vaddr is 268640
Paddr is not aviliable,vaddr is 268680
Paddr is not aviliable,vaddr is 2686c0
Paddr is not aviliable,vaddr is 268700
Paddr is not aviliable,vaddr is 268740
Paddr is not aviliable,vaddr is 268780
Paddr is not aviliable,vaddr is 2687c0
Paddr is not aviliable,vaddr is 268040
Paddr is not aviliable,vaddr is 268080
Paddr is not aviliable,vaddr is 2680c0
Paddr is not aviliable,vaddr is 268100
Paddr is not aviliable,vaddr is 268140
Paddr is not aviliable,vaddr is 268180
Paddr is not aviliable,vaddr is 2681c0
Paddr is not aviliable,vaddr is 268200
Paddr is not aviliable,vaddr is 268240
Paddr is not aviliable,vaddr is 268280
Paddr is not aviliable,vaddr is 2682c0
Paddr is not aviliable,vaddr is 268300
Paddr is not aviliable,vaddr is 268340
Paddr is not aviliable,vaddr is 268380
Paddr is not aviliable,vaddr is 2683c0
Paddr is not aviliable,vaddr is 268400
Paddr is not aviliable,vaddr is 268440
Paddr is not aviliable,vaddr is 268480
Paddr is not aviliable,vaddr is 2684c0
Paddr is not aviliable,vaddr is 268500
Paddr is not aviliable,vaddr is 268540
Paddr is not aviliable,vaddr is 268580
Paddr is not aviliable,vaddr is 2685c0
Paddr is not aviliable,vaddr is 268600
Paddr is not aviliable,vaddr is 268640
Paddr is not aviliable,vaddr is 268680
Paddr is not aviliable,vaddr is 2686c0
Paddr is not aviliable,vaddr is 268700
Paddr is not aviliable,vaddr is 268740
Paddr is not aviliable,vaddr is 268780
Paddr is not aviliable,vaddr is 2687c0
Paddr is not aviliable,vaddr is 268040
Paddr is not aviliable,vaddr is 268080
Paddr is not aviliable,vaddr is 2680c0
Paddr is not aviliable,vaddr is 268100
Paddr is not aviliable,vaddr is 268140
Paddr is not aviliable,vaddr is 268180
Paddr is not aviliable,vaddr is 2681c0
Paddr is not aviliable,vaddr is 268200
Paddr is not aviliable,vaddr is 268240
Paddr is not aviliable,vaddr is 268280
Paddr is not aviliable,vaddr is 2682c0
Paddr is not aviliable,vaddr is 268300
Paddr is not aviliable,vaddr is 268340
Paddr is not aviliable,vaddr is 268380
Paddr is not aviliable,vaddr is 2683c0
Paddr is not aviliable,vaddr is 268400
Paddr is not aviliable,vaddr is 268440
Paddr is not aviliable,vaddr is 268480
Paddr is not aviliable,vaddr is 2684c0
Paddr is not aviliable,vaddr is 268500
Paddr is not aviliable,vaddr is 268540
Paddr is not aviliable,vaddr is 268580
Paddr is not aviliable,vaddr is 2685c0
Paddr is not aviliable,vaddr is 268600
Paddr is not aviliable,vaddr is 268640
Paddr is not aviliable,vaddr is 268680
Paddr is not aviliable,vaddr is 2686c0
Paddr is not aviliable,vaddr is 268700
Paddr is not aviliable,vaddr is 268740
Paddr is not aviliable,vaddr is 268780
Paddr is not aviliable,vaddr is 2687c0
Paddr is not aviliable,vaddr is 268040
Paddr is not aviliable,vaddr is 268080
Paddr is not aviliable,vaddr is 2680c0
Paddr is not aviliable,vaddr is 268100
Paddr is not aviliable,vaddr is 268140
Paddr is not aviliable,vaddr is 268180
Paddr is not aviliable,vaddr is 2681c0
Paddr is not aviliable,vaddr is 268200
Paddr is not aviliable,vaddr is 268240
Paddr is not aviliable,vaddr is 268280
Paddr is not aviliable,vaddr is 2682c0
Paddr is not aviliable,vaddr is 268300
Paddr is not aviliable,vaddr is 268340
Paddr is not aviliable,vaddr is 268380
Paddr is not aviliable,vaddr is 2683c0
Paddr is not aviliable,vaddr is 268400
Paddr is not aviliable,vaddr is 268440
Paddr is not aviliable,vaddr is 268480
Paddr is not aviliable,vaddr is 2684c0
Paddr is not aviliable,vaddr is 268500
Paddr is not aviliable,vaddr is 268540
Paddr is not aviliable,vaddr is 268580
Paddr is not aviliable,vaddr is 2685c0
Paddr is not aviliable,vaddr is 268600
Paddr is not aviliable,vaddr is 268640
Paddr is not aviliable,vaddr is 268680
Paddr is not aviliable,vaddr is 2686c0
Paddr is not aviliable,vaddr is 268700
Paddr is not aviliable,vaddr is 268740
Paddr is not aviliable,vaddr is 268780
Paddr is not aviliable,vaddr is 2687c0
Paddr is not aviliable,vaddr is 268040
Paddr is not aviliable,vaddr is 268080
Paddr is not aviliable,vaddr is 2680c0
Paddr is not aviliable,vaddr is 268100
Paddr is not aviliable,vaddr is 268140
Paddr is not aviliable,vaddr is 268180
Paddr is not aviliable,vaddr is 2681c0
Paddr is not aviliable,vaddr is 268200
Paddr is not aviliable,vaddr is 268240
Paddr is not aviliable,vaddr is 268280
Paddr is not aviliable,vaddr is 2682c0
Paddr is not aviliable,vaddr is 268300
Paddr is not aviliable,vaddr is 268340
Paddr is not aviliable,vaddr is 268380
Paddr is not aviliable,vaddr is 2683c0
Paddr is not aviliable,vaddr is 268400
Paddr is not aviliable,vaddr is 268440
Paddr is not aviliable,vaddr is 268480
Paddr is not aviliable,vaddr is 2684c0
Paddr is not aviliable,vaddr is 268500
Paddr is not aviliable,vaddr is 268540
Paddr is not aviliable,vaddr is 268580
Paddr is not aviliable,vaddr is 2685c0
Paddr is not aviliable,vaddr is 268600
Paddr is not aviliable,vaddr is 268640
Paddr is not aviliable,vaddr is 268680
Paddr is not aviliable,vaddr is 2686c0
Paddr is not aviliable,vaddr is 268700
Paddr is not aviliable,vaddr is 268740
Paddr is not aviliable,vaddr is 268780
Paddr is not aviliable,vaddr is 2687c0
Paddr is not aviliable,vaddr is 268040
Paddr is not aviliable,vaddr is 268080
Paddr is not aviliable,vaddr is 2680c0
Paddr is not aviliable,vaddr is 268100
Paddr is not aviliable,vaddr is 268140
Paddr is not aviliable,vaddr is 268180
Paddr is not aviliable,vaddr is 2681c0
Paddr is not aviliable,vaddr is 268200
Paddr is not aviliable,vaddr is 268240
Paddr is not aviliable,vaddr is 268280
Paddr is not aviliable,vaddr is 2682c0
Paddr is not aviliable,vaddr is 268300
Paddr is not aviliable,vaddr is 268340
Paddr is not aviliable,vaddr is 268380
Paddr is not aviliable,vaddr is 2683c0
Paddr is not aviliable,vaddr is 268400
Paddr is not aviliable,vaddr is 268440
Paddr is not aviliable,vaddr is 268480
Paddr is not aviliable,vaddr is 2684c0
Paddr is not aviliable,vaddr is 268500
Paddr is not aviliable,vaddr is 268540
Paddr is not aviliable,vaddr is 268580
Paddr is not aviliable,vaddr is 2685c0
Paddr is not aviliable,vaddr is 268600
Paddr is not aviliable,vaddr is 268640
Paddr is not aviliable,vaddr is 268680
Paddr is not aviliable,vaddr is 2686c0
Paddr is not aviliable,vaddr is 268700
Paddr is not aviliable,vaddr is 268740
Paddr is not aviliable,vaddr is 268780
Paddr is not aviliable,vaddr is 2687c0
Paddr is not aviliable,vaddr is 268040
Paddr is not aviliable,vaddr is 268080
Paddr is not aviliable,vaddr is 2680c0
Paddr is not aviliable,vaddr is 268100
Paddr is not aviliable,vaddr is 268140
Paddr is not aviliable,vaddr is 268180
Paddr is not aviliable,vaddr is 2681c0
Paddr is not aviliable,vaddr is 268200
Paddr is not aviliable,vaddr is 268240
Paddr is not aviliable,vaddr is 268280
Paddr is not aviliable,vaddr is 2682c0
Paddr is not aviliable,vaddr is 268300
Paddr is not aviliable,vaddr is 268340
Paddr is not aviliable,vaddr is 268380
Paddr is not aviliable,vaddr is 2683c0
Paddr is not aviliable,vaddr is 268400
Paddr is not aviliable,vaddr is 268440
Paddr is not aviliable,vaddr is 268480
Paddr is not aviliable,vaddr is 2684c0
Paddr is not aviliable,vaddr is 268500
Paddr is not aviliable,vaddr is 268540
Paddr is not aviliable,vaddr is 268580
Paddr is not aviliable,vaddr is 2685c0
Paddr is not aviliable,vaddr is 268600
Paddr is not aviliable,vaddr is 268640
Paddr is not aviliable,vaddr is 268680
Paddr is not aviliable,vaddr is 2686c0
Paddr is not aviliable,vaddr is 268700
Paddr is not aviliable,vaddr is 268740
Paddr is not aviliable,vaddr is 268780
Paddr is not aviliable,vaddr is 2687c0
Paddr is not aviliable,vaddr is 268040
Paddr is not aviliable,vaddr is 268080
Paddr is not aviliable,vaddr is 2680c0
Paddr is not aviliable,vaddr is 268100
Paddr is not aviliable,vaddr is 268140
Paddr is not aviliable,vaddr is 268180
Paddr is not aviliable,vaddr is 2681c0
Paddr is not aviliable,vaddr is 268200
Paddr is not aviliable,vaddr is 268240
Paddr is not aviliable,vaddr is 268280
Paddr is not aviliable,vaddr is 2682c0
Paddr is not aviliable,vaddr is 268300
Paddr is not aviliable,vaddr is 268340
Paddr is not aviliable,vaddr is 268380
Paddr is not aviliable,vaddr is 2683c0
Paddr is not aviliable,vaddr is 268400
Paddr is not aviliable,vaddr is 268440
Paddr is not aviliable,vaddr is 268480
Paddr is not aviliable,vaddr is 2684c0
Paddr is not aviliable,vaddr is 268500
Paddr is not aviliable,vaddr is 268540
Paddr is not aviliable,vaddr is 268580
Paddr is not aviliable,vaddr is 2685c0
Paddr is not aviliable,vaddr is 268600
Paddr is not aviliable,vaddr is 268640
Paddr is not aviliable,vaddr is 268680
Paddr is not aviliable,vaddr is 2686c0
Paddr is not aviliable,vaddr is 268700
Paddr is not aviliable,vaddr is 268740
Paddr is not aviliable,vaddr is 268780
Paddr is not aviliable,vaddr is 2687c0
Paddr is not aviliable,vaddr is 268040
Paddr is not aviliable,vaddr is 268080
Paddr is not aviliable,vaddr is 2680c0
Paddr is not aviliable,vaddr is 268100
Paddr is not aviliable,vaddr is 268140
Paddr is not aviliable,vaddr is 268180
Paddr is not aviliable,vaddr is 2681c0
Paddr is not aviliable,vaddr is 268200
Paddr is not aviliable,vaddr is 268240
Paddr is not aviliable,vaddr is 268280
Paddr is not aviliable,vaddr is 2682c0
Paddr is not aviliable,vaddr is 268300
Paddr is not aviliable,vaddr is 268340
Paddr is not aviliable,vaddr is 268380
Paddr is not aviliable,vaddr is 2683c0
Paddr is not aviliable,vaddr is 268400
Paddr is not aviliable,vaddr is 268440
Paddr is not aviliable,vaddr is 268480
Paddr is not aviliable,vaddr is 2684c0
Paddr is not aviliable,vaddr is 268500
Paddr is not aviliable,vaddr is 268540
Paddr is not aviliable,vaddr is 268580
Paddr is not aviliable,vaddr is 2685c0
Paddr is not aviliable,vaddr is 268600
Paddr is not aviliable,vaddr is 268640
Paddr is not aviliable,vaddr is 268680
Paddr is not aviliable,vaddr is 2686c0
Paddr is not aviliable,vaddr is 268700
Paddr is not aviliable,vaddr is 268740
Paddr is not aviliable,vaddr is 268780
Paddr is not aviliable,vaddr is 2687c0
Paddr is not aviliable,vaddr is 268040
Paddr is not aviliable,vaddr is 268080
Paddr is not aviliable,vaddr is 2680c0
Paddr is not aviliable,vaddr is 268100
Paddr is not aviliable,vaddr is 268140
Paddr is not aviliable,vaddr is 268180
Paddr is not aviliable,vaddr is 2681c0
Paddr is not aviliable,vaddr is 268200
Paddr is not aviliable,vaddr is 268240
Paddr is not aviliable,vaddr is 268280
Paddr is not aviliable,vaddr is 2682c0
Paddr is not aviliable,vaddr is 268300
Paddr is not aviliable,vaddr is 268340
Paddr is not aviliable,vaddr is 268380
Paddr is not aviliable,vaddr is 2683c0
Paddr is not aviliable,vaddr is 268400
Paddr is not aviliable,vaddr is 268440
Paddr is not aviliable,vaddr is 268480
Paddr is not aviliable,vaddr is 2684c0
Paddr is not aviliable,vaddr is 268500
Paddr is not aviliable,vaddr is 268540
Paddr is not aviliable,vaddr is 268580
Paddr is not aviliable,vaddr is 2685c0
Paddr is not aviliable,vaddr is 268600
Paddr is not aviliable,vaddr is 268640
Paddr is not aviliable,vaddr is 268680
Paddr is not aviliable,vaddr is 2686c0
Paddr is not aviliable,vaddr is 268700
Paddr is not aviliable,vaddr is 268740
Paddr is not aviliable,vaddr is 268780
Paddr is not aviliable,vaddr is 2687c0
Paddr is not aviliable,vaddr is 268040
Paddr is not aviliable,vaddr is 268080
Paddr is not aviliable,vaddr is 2680c0
Paddr is not aviliable,vaddr is 268100
Paddr is not aviliable,vaddr is 268140
Paddr is not aviliable,vaddr is 268180
Paddr is not aviliable,vaddr is 2681c0
Paddr is not aviliable,vaddr is 268200
Paddr is not aviliable,vaddr is 268240
Paddr is not aviliable,vaddr is 268280
Paddr is not aviliable,vaddr is 2682c0
Paddr is not aviliable,vaddr is 268300
Paddr is not aviliable,vaddr is 268340
Paddr is not aviliable,vaddr is 268380
Paddr is not aviliable,vaddr is 2683c0
Paddr is not aviliable,vaddr is 268400
Paddr is not aviliable,vaddr is 268440
Paddr is not aviliable,vaddr is 268480
Paddr is not aviliable,vaddr is 2684c0
Paddr is not aviliable,vaddr is 268500
Paddr is not aviliable,vaddr is 268540
Paddr is not aviliable,vaddr is 268580
Paddr is not aviliable,vaddr is 2685c0
Paddr is not aviliable,vaddr is 268600
Paddr is not aviliable,vaddr is 268640
Paddr is not aviliable,vaddr is 268680
Paddr is not aviliable,vaddr is 2686c0
Paddr is not aviliable,vaddr is 268700
Paddr is not aviliable,vaddr is 268740
Paddr is not aviliable,vaddr is 268780
Paddr is not aviliable,vaddr is 2687c0
Paddr is not aviliable,vaddr is 268040
Paddr is not aviliable,vaddr is 268080
Paddr is not aviliable,vaddr is 2680c0
Paddr is not aviliable,vaddr is 268100
Paddr is not aviliable,vaddr is 268140
Paddr is not aviliable,vaddr is 268180
Paddr is not aviliable,vaddr is 2681c0
Paddr is not aviliable,vaddr is 268200
Paddr is not aviliable,vaddr is 268240
Paddr is not aviliable,vaddr is 268280
Paddr is not aviliable,vaddr is 2682c0
Paddr is not aviliable,vaddr is 268300
Paddr is not aviliable,vaddr is 268340
Paddr is not aviliable,vaddr is 268380
Paddr is not aviliable,vaddr is 2683c0
Paddr is not aviliable,vaddr is 268400
Paddr is not aviliable,vaddr is 268440
Paddr is not aviliable,vaddr is 268480
Paddr is not aviliable,vaddr is 2684c0
Paddr is not aviliable,vaddr is 268500
Paddr is not aviliable,vaddr is 268540
Paddr is not aviliable,vaddr is 268580
Paddr is not aviliable,vaddr is 2685c0
Paddr is not aviliable,vaddr is 268600
Paddr is not aviliable,vaddr is 268640
Paddr is not aviliable,vaddr is 268680
Paddr is not aviliable,vaddr is 2686c0
Paddr is not aviliable,vaddr is 268700
Paddr is not aviliable,vaddr is 268740
Paddr is not aviliable,vaddr is 268780
Paddr is not aviliable,vaddr is 2687c0
Paddr is not aviliable,vaddr is 268040
Paddr is not aviliable,vaddr is 268080
Paddr is not aviliable,vaddr is 2680c0
Paddr is not aviliable,vaddr is 268100
Paddr is not aviliable,vaddr is 268140
Paddr is not aviliable,vaddr is 268180
Paddr is not aviliable,vaddr is 2681c0
Paddr is not aviliable,vaddr is 268200
Paddr is not aviliable,vaddr is 268240
Paddr is not aviliable,vaddr is 268280
Paddr is not aviliable,vaddr is 2682c0
Paddr is not aviliable,vaddr is 268300
Paddr is not aviliable,vaddr is 268340
Paddr is not aviliable,vaddr is 268380
Paddr is not aviliable,vaddr is 2683c0
Paddr is not aviliable,vaddr is 268400
Paddr is not aviliable,vaddr is 268440
Paddr is not aviliable,vaddr is 268480
Paddr is not aviliable,vaddr is 2684c0
Paddr is not aviliable,vaddr is 268500
Paddr is not aviliable,vaddr is 268540
Paddr is not aviliable,vaddr is 268580
Paddr is not aviliable,vaddr is 2685c0
Paddr is not aviliable,vaddr is 268600
Paddr is not aviliable,vaddr is 268640
Paddr is not aviliable,vaddr is 268680
Paddr is not aviliable,vaddr is 2686c0
Paddr is not aviliable,vaddr is 268700
Paddr is not aviliable,vaddr is 268740
Paddr is not aviliable,vaddr is 268780
Paddr is not aviliable,vaddr is 2687c0
Paddr is not aviliable,vaddr is 268040
Paddr is not aviliable,vaddr is 268080
Paddr is not aviliable,vaddr is 2680c0
Paddr is not aviliable,vaddr is 268100
Paddr is not aviliable,vaddr is 268140
Paddr is not aviliable,vaddr is 268180
Paddr is not aviliable,vaddr is 2681c0
Paddr is not aviliable,vaddr is 268200
Paddr is not aviliable,vaddr is 268240
Paddr is not aviliable,vaddr is 268280
Paddr is not aviliable,vaddr is 2682c0
Paddr is not aviliable,vaddr is 268300
Paddr is not aviliable,vaddr is 268340
Paddr is not aviliable,vaddr is 268380
Paddr is not aviliable,vaddr is 2683c0
Paddr is not aviliable,vaddr is 268400
Paddr is not aviliable,vaddr is 268440
Paddr is not aviliable,vaddr is 268480
Paddr is not aviliable,vaddr is 2684c0
Paddr is not aviliable,vaddr is 268500
Paddr is not aviliable,vaddr is 268540
Paddr is not aviliable,vaddr is 268580
Paddr is not aviliable,vaddr is 2685c0
Paddr is not aviliable,vaddr is 268600
Paddr is not aviliable,vaddr is 268640
Paddr is not aviliable,vaddr is 268680
Paddr is not aviliable,vaddr is 2686c0
Paddr is not aviliable,vaddr is 268700
Paddr is not aviliable,vaddr is 268740
Paddr is not aviliable,vaddr is 268780
Paddr is not aviliable,vaddr is 2687c0
Paddr is not aviliable,vaddr is 268040
Paddr is not aviliable,vaddr is 268080
Paddr is not aviliable,vaddr is 2680c0
Paddr is not aviliable,vaddr is 268100
Paddr is not aviliable,vaddr is 268140
Paddr is not aviliable,vaddr is 268180
Paddr is not aviliable,vaddr is 2681c0
Paddr is not aviliable,vaddr is 268200
Paddr is not aviliable,vaddr is 268240
Paddr is not aviliable,vaddr is 268280
Paddr is not aviliable,vaddr is 2682c0
Paddr is not aviliable,vaddr is 268300
Paddr is not aviliable,vaddr is 268340
Paddr is not aviliable,vaddr is 268380
Paddr is not aviliable,vaddr is 2683c0
Paddr is not aviliable,vaddr is 268400
Paddr is not aviliable,vaddr is 268440
Paddr is not aviliable,vaddr is 268480
Paddr is not aviliable,vaddr is 2684c0
Paddr is not aviliable,vaddr is 268500
Paddr is not aviliable,vaddr is 268540
Paddr is not aviliable,vaddr is 268580
Paddr is not aviliable,vaddr is 2685c0
Paddr is not aviliable,vaddr is 268600
Paddr is not aviliable,vaddr is 268640
Paddr is not aviliable,vaddr is 268680
Paddr is not aviliable,vaddr is 2686c0
Paddr is not aviliable,vaddr is 268700
Paddr is not aviliable,vaddr is 268740
Paddr is not aviliable,vaddr is 268780
Paddr is not aviliable,vaddr is 2687c0
in sdm_init hmac done
in sdm_init iit done
sdm_init over!!
[254120115000]in sdm_malloc npages=1 pool_id=2
[254120115000]in sdm_malloc npages=1 pool_id=2
sdm_malloc over
start build_SkipList
build_SkipList over
register over
need check
Paddr is not aviliable,vaddr is 268040
Paddr is not aviliable,vaddr is 268080
Paddr is not aviliable,vaddr is 2680c0
Paddr is not aviliable,vaddr is 268100
Paddr is not aviliable,vaddr is 268140
Paddr is not aviliable,vaddr is 268180
Paddr is not aviliable,vaddr is 2681c0
Paddr is not aviliable,vaddr is 268200
Paddr is not aviliable,vaddr is 268240
Paddr is not aviliable,vaddr is 268280
Paddr is not aviliable,vaddr is 2682c0
Paddr is not aviliable,vaddr is 268300
Paddr is not aviliable,vaddr is 268340
Paddr is not aviliable,vaddr is 268380
Paddr is not aviliable,vaddr is 2683c0
Paddr is not aviliable,vaddr is 268400
Paddr is not aviliable,vaddr is 268440
Paddr is not aviliable,vaddr is 268480
Paddr is not aviliable,vaddr is 2684c0
Paddr is not aviliable,vaddr is 268500
Paddr is not aviliable,vaddr is 268540
Paddr is not aviliable,vaddr is 268580
Paddr is not aviliable,vaddr is 2685c0
Paddr is not aviliable,vaddr is 268600
Paddr is not aviliable,vaddr is 268640
Paddr is not aviliable,vaddr is 268680
Paddr is not aviliable,vaddr is 2686c0
Paddr is not aviliable,vaddr is 268700
Paddr is not aviliable,vaddr is 268740
Paddr is not aviliable,vaddr is 268780
Paddr is not aviliable,vaddr is 2687c0
