Global frequency set at 1000000000000 ticks per second
AbstractMemory [0:0x2000000] constructed!!
AbstractMemory [0x10000000000:0x10002000000] constructed!!
SEWorkload constructed!!
mem_pool.cc [poplulate]0:0->2000000
mem_pool.cc [poplulate]1:10000000000->10002000000
/home/yqy/桌面/mybench/x86/bin/x86_hello construct!!
process.cc pool: 0 
/home/yqy/桌面/mybench/x86/bin/x86_memtest construct!!
process.cc pool: 1 
gem5 Simulator System.  https://www.gem5.org
gem5 is copyrighted software; use the --copyright option for details.

gem5 version 22.1.0.0
gem5 compiled Apr 16 2023 01:40:02
gem5 started Apr 16 2023 02:20:11
gem5 executing on yqy-mem-crypt, pid 2895
command line: build/X86/gem5.opt configs/example/se.py --caches --l2cache --l2_size=16kB --num-l2caches=2 --mem-size=32MB '--pool_ids=0;1' --cpu-type=X86TimingSimpleCPU --num-cpu=2 '--cmd=/home/yqy/桌面/mybench/x86/bin/x86_hello;/home/yqy/桌面/mybench/x86/bin/x86_memtest'

**** REAL SIMULATION ****
[11500]mem_ctrl.cc recvTimingReq:ReadSharedReq [44c0:44ff] IF
[11500]mem_ctrl.cc addToReadQueue:ReadSharedReq [44c0:44ff] IF
[11500]mem_ctrl.cc doBurstAccess:ReadSharedReq [44c0:44ff] IF
[12000]mem_ctrl.cc recvTimingReq:ReadSharedReq [100000044c0:100000044ff] IF
[12000]mem_ctrl.cc addToReadQueue:ReadSharedReq [100000044c0:100000044ff] IF
[12000]mem_ctrl.cc doBurstAccess:ReadSharedReq [100000044c0:100000044ff] IF
[46250]mem_ctrl.cc processRespondEvent:ReadSharedReq [100000044c0:100000044ff] IF
[46250]mem_ctrl.cc accessAndRespond:ReadSharedReq [100000044c0:100000044ff] IF
[46250]mem_ctrl.cc processRespondEvent:ReadSharedReq [44c0:44ff] IF
[46250]mem_ctrl.cc accessAndRespond:ReadSharedReq [44c0:44ff] IF
[104000]mem_ctrl.cc recvTimingReq:ReadSharedReq [100001e2e00:100001e2e3f]
[104000]mem_ctrl.cc addToReadQueue:ReadSharedReq [100001e2e00:100001e2e3f]
[104000]mem_ctrl.cc doBurstAccess:ReadSharedReq [100001e2e00:100001e2e3f]
[109000]mem_ctrl.cc recvTimingReq:ReadSharedReq [1e2e00:1e2e3f]
[109000]mem_ctrl.cc addToReadQueue:ReadSharedReq [1e2e00:1e2e3f]
[109000]mem_ctrl.cc doBurstAccess:ReadSharedReq [1e2e00:1e2e3f]
[136500]mem_ctrl.cc processRespondEvent:ReadSharedReq [100001e2e00:100001e2e3f]
[136500]mem_ctrl.cc accessAndRespond:ReadSharedReq [100001e2e00:100001e2e3f]
[141500]mem_ctrl.cc processRespondEvent:ReadSharedReq [1e2e00:1e2e3f]
[141500]mem_ctrl.cc accessAndRespond:ReadSharedReq [1e2e00:1e2e3f]
[203000]mem_ctrl.cc recvTimingReq:ReadSharedReq [100000a8dc0:100000a8dff] IF
[203000]mem_ctrl.cc addToReadQueue:ReadSharedReq [100000a8dc0:100000a8dff] IF
[203000]mem_ctrl.cc doBurstAccess:ReadSharedReq [100000a8dc0:100000a8dff] IF
[208000]mem_ctrl.cc recvTimingReq:ReadSharedReq [a8cc0:a8cff] IF
[208000]mem_ctrl.cc addToReadQueue:ReadSharedReq [a8cc0:a8cff] IF
[208000]mem_ctrl.cc doBurstAccess:ReadSharedReq [a8cc0:a8cff] IF
[235500]mem_ctrl.cc processRespondEvent:ReadSharedReq [100000a8dc0:100000a8dff] IF
[235500]mem_ctrl.cc accessAndRespond:ReadSharedReq [100000a8dc0:100000a8dff] IF
[240500]mem_ctrl.cc processRespondEvent:ReadSharedReq [a8cc0:a8cff] IF
[240500]mem_ctrl.cc accessAndRespond:ReadSharedReq [a8cc0:a8cff] IF
[294000]mem_ctrl.cc recvTimingReq:ReadExReq [100001e2dc0:100001e2dff]
[294000]mem_ctrl.cc addToReadQueue:ReadExReq [100001e2dc0:100001e2dff]
[294000]mem_ctrl.cc doBurstAccess:ReadExReq [100001e2dc0:100001e2dff]
[304000]mem_ctrl.cc recvTimingReq:ReadExReq [1e2dc0:1e2dff]
[304000]mem_ctrl.cc addToReadQueue:ReadExReq [1e2dc0:1e2dff]
[304000]mem_ctrl.cc doBurstAccess:ReadExReq [1e2dc0:1e2dff]
[312750]mem_ctrl.cc processRespondEvent:ReadExReq [100001e2dc0:100001e2dff]
[312750]mem_ctrl.cc accessAndRespond:ReadExReq [100001e2dc0:100001e2dff]
[322750]mem_ctrl.cc processRespondEvent:ReadExReq [1e2dc0:1e2dff]
[322750]mem_ctrl.cc accessAndRespond:ReadExReq [1e2dc0:1e2dff]
[380000]mem_ctrl.cc recvTimingReq:ReadExReq [100001e2d40:100001e2d7f]
[380000]mem_ctrl.cc addToReadQueue:ReadExReq [100001e2d40:100001e2d7f]
[380000]mem_ctrl.cc doBurstAccess:ReadExReq [100001e2d40:100001e2d7f]
[385000]mem_ctrl.cc recvTimingReq:ReadExReq [1e2d40:1e2d7f]
[385000]mem_ctrl.cc addToReadQueue:ReadExReq [1e2d40:1e2d7f]
[385000]mem_ctrl.cc doBurstAccess:ReadExReq [1e2d40:1e2d7f]
[398750]mem_ctrl.cc processRespondEvent:ReadExReq [100001e2d40:100001e2d7f]
[398750]mem_ctrl.cc accessAndRespond:ReadExReq [100001e2d40:100001e2d7f]
[403750]mem_ctrl.cc processRespondEvent:ReadExReq [1e2d40:1e2d7f]
[403750]mem_ctrl.cc accessAndRespond:ReadExReq [1e2d40:1e2d7f]
[455000]mem_ctrl.cc recvTimingReq:ReadSharedReq [100000a8e00:100000a8e3f] IF
[455000]mem_ctrl.cc addToReadQueue:ReadSharedReq [100000a8e00:100000a8e3f] IF
[455000]mem_ctrl.cc doBurstAccess:ReadSharedReq [100000a8e00:100000a8e3f] IF
[460000]mem_ctrl.cc recvTimingReq:ReadSharedReq [a8d00:a8d3f] IF
[460000]mem_ctrl.cc addToReadQueue:ReadSharedReq [a8d00:a8d3f] IF
[460000]mem_ctrl.cc doBurstAccess:ReadSharedReq [a8d00:a8d3f] IF
[473750]mem_ctrl.cc processRespondEvent:ReadSharedReq [100000a8e00:100000a8e3f] IF
[473750]mem_ctrl.cc accessAndRespond:ReadSharedReq [100000a8e00:100000a8e3f] IF
[478750]mem_ctrl.cc processRespondEvent:ReadSharedReq [a8d00:a8d3f] IF
[478750]mem_ctrl.cc accessAndRespond:ReadSharedReq [a8d00:a8d3f] IF
[530000]mem_ctrl.cc recvTimingReq:ReadExReq [100001e1600:100001e163f]
[530000]mem_ctrl.cc addToReadQueue:ReadExReq [100001e1600:100001e163f]
[530000]mem_ctrl.cc doBurstAccess:ReadExReq [100001e1600:100001e163f]
[535000]mem_ctrl.cc recvTimingReq:ReadExReq [1e1600:1e163f]
[535000]mem_ctrl.cc addToReadQueue:ReadExReq [1e1600:1e163f]
[535000]mem_ctrl.cc doBurstAccess:ReadExReq [1e1600:1e163f]
[562500]mem_ctrl.cc processRespondEvent:ReadExReq [100001e1600:100001e163f]
[562500]mem_ctrl.cc accessAndRespond:ReadExReq [100001e1600:100001e163f]
[567500]mem_ctrl.cc processRespondEvent:ReadExReq [1e1600:1e163f]
[567500]mem_ctrl.cc accessAndRespond:ReadExReq [1e1600:1e163f]
[618000]mem_ctrl.cc recvTimingReq:ReadExReq [100001d6e00:100001d6e3f]
[618000]mem_ctrl.cc addToReadQueue:ReadExReq [100001d6e00:100001d6e3f]
[618000]mem_ctrl.cc doBurstAccess:ReadExReq [100001d6e00:100001d6e3f]
[623000]mem_ctrl.cc recvTimingReq:ReadExReq [1d6e00:1d6e3f]
[623000]mem_ctrl.cc addToReadQueue:ReadExReq [1d6e00:1d6e3f]
[623000]mem_ctrl.cc doBurstAccess:ReadExReq [1d6e00:1d6e3f]
[650500]mem_ctrl.cc processRespondEvent:ReadExReq [100001d6e00:100001d6e3f]
[650500]mem_ctrl.cc accessAndRespond:ReadExReq [100001d6e00:100001d6e3f]
[655500]mem_ctrl.cc processRespondEvent:ReadExReq [1d6e00:1d6e3f]
[655500]mem_ctrl.cc accessAndRespond:ReadExReq [1d6e00:1d6e3f]
[711000]mem_ctrl.cc recvTimingReq:ReadExReq [100001e2cc0:100001e2cff]
[711000]mem_ctrl.cc addToReadQueue:ReadExReq [100001e2cc0:100001e2cff]
[711000]mem_ctrl.cc doBurstAccess:ReadExReq [100001e2cc0:100001e2cff]
[713000]mem_ctrl.cc recvTimingReq:ReadSharedReq [1e2e40:1e2e7f]
[713000]mem_ctrl.cc addToReadQueue:ReadSharedReq [1e2e40:1e2e7f]
[713000]mem_ctrl.cc doBurstAccess:ReadSharedReq [1e2e40:1e2e7f]
[729750]mem_ctrl.cc processRespondEvent:ReadExReq [100001e2cc0:100001e2cff]
[729750]mem_ctrl.cc accessAndRespond:ReadExReq [100001e2cc0:100001e2cff]
[731750]mem_ctrl.cc processRespondEvent:ReadSharedReq [1e2e40:1e2e7f]
[731750]mem_ctrl.cc accessAndRespond:ReadSharedReq [1e2e40:1e2e7f]
[783000]mem_ctrl.cc recvTimingReq:ReadSharedReq [10000130a80:10000130abf] IF
[783000]mem_ctrl.cc addToReadQueue:ReadSharedReq [10000130a80:10000130abf] IF
[783000]mem_ctrl.cc doBurstAccess:ReadSharedReq [10000130a80:10000130abf] IF
[790000]mem_ctrl.cc recvTimingReq:ReadExReq [1e2cc0:1e2cff]
[790000]mem_ctrl.cc addToReadQueue:ReadExReq [1e2cc0:1e2cff]
[790000]mem_ctrl.cc doBurstAccess:ReadExReq [1e2cc0:1e2cff]
[808750]mem_ctrl.cc processRespondEvent:ReadExReq [1e2cc0:1e2cff]
[808750]mem_ctrl.cc accessAndRespond:ReadExReq [1e2cc0:1e2cff]
[815500]mem_ctrl.cc processRespondEvent:ReadSharedReq [10000130a80:10000130abf] IF
[815500]mem_ctrl.cc accessAndRespond:ReadSharedReq [10000130a80:10000130abf] IF
[862000]mem_ctrl.cc recvTimingReq:ReadSharedReq [130980:1309bf] IF
[862000]mem_ctrl.cc addToReadQueue:ReadSharedReq [130980:1309bf] IF
[862000]mem_ctrl.cc doBurstAccess:ReadSharedReq [130980:1309bf] IF
[870000]mem_ctrl.cc recvTimingReq:ReadSharedReq [100001e2e40:100001e2e7f]
[870000]mem_ctrl.cc addToReadQueue:ReadSharedReq [100001e2e40:100001e2e7f]
[870000]mem_ctrl.cc doBurstAccess:ReadSharedReq [100001e2e40:100001e2e7f]
[888750]mem_ctrl.cc processRespondEvent:ReadSharedReq [100001e2e40:100001e2e7f]
[888750]mem_ctrl.cc accessAndRespond:ReadSharedReq [100001e2e40:100001e2e7f]
[894500]mem_ctrl.cc processRespondEvent:ReadSharedReq [130980:1309bf] IF
[894500]mem_ctrl.cc accessAndRespond:ReadSharedReq [130980:1309bf] IF
[944000]mem_ctrl.cc recvTimingReq:ReadExReq [100001e1700:100001e173f]
[944000]mem_ctrl.cc addToReadQueue:ReadExReq [100001e1700:100001e173f]
[944000]mem_ctrl.cc doBurstAccess:ReadExReq [100001e1700:100001e173f]
[952000]mem_ctrl.cc recvTimingReq:ReadExReq [1e1700:1e173f]
[952000]mem_ctrl.cc addToReadQueue:ReadExReq [1e1700:1e173f]
[952000]mem_ctrl.cc doBurstAccess:ReadExReq [1e1700:1e173f]
[962750]mem_ctrl.cc processRespondEvent:ReadExReq [100001e1700:100001e173f]
[962750]mem_ctrl.cc accessAndRespond:ReadExReq [100001e1700:100001e173f]
[970750]mem_ctrl.cc processRespondEvent:ReadExReq [1e1700:1e173f]
[970750]mem_ctrl.cc accessAndRespond:ReadExReq [1e1700:1e173f]
[1017000]mem_ctrl.cc recvTimingReq:ReadSharedReq [10000130ac0:10000130aff] IF
[1017000]mem_ctrl.cc addToReadQueue:ReadSharedReq [10000130ac0:10000130aff] IF
[1017000]mem_ctrl.cc doBurstAccess:ReadSharedReq [10000130ac0:10000130aff] IF
[1025000]mem_ctrl.cc recvTimingReq:ReadSharedReq [1309c0:1309ff] IF
[1025000]mem_ctrl.cc addToReadQueue:ReadSharedReq [1309c0:1309ff] IF
[1025000]mem_ctrl.cc doBurstAccess:ReadSharedReq [1309c0:1309ff] IF
[1035750]mem_ctrl.cc processRespondEvent:ReadSharedReq [10000130ac0:10000130aff] IF
[1035750]mem_ctrl.cc accessAndRespond:ReadSharedReq [10000130ac0:10000130aff] IF
[1043750]mem_ctrl.cc processRespondEvent:ReadSharedReq [1309c0:1309ff] IF
[1043750]mem_ctrl.cc accessAndRespond:ReadSharedReq [1309c0:1309ff] IF
[1120000]mem_ctrl.cc recvTimingReq:ReadExReq [100001e2c80:100001e2cbf]
[1120000]mem_ctrl.cc addToReadQueue:ReadExReq [100001e2c80:100001e2cbf]
[1120000]mem_ctrl.cc doBurstAccess:ReadExReq [100001e2c80:100001e2cbf]
[1131000]mem_ctrl.cc recvTimingReq:ReadExReq [1e2c80:1e2cbf]
[1131000]mem_ctrl.cc addToReadQueue:ReadExReq [1e2c80:1e2cbf]
[1131000]mem_ctrl.cc doBurstAccess:ReadExReq [1e2c80:1e2cbf]
[1138750]mem_ctrl.cc processRespondEvent:ReadExReq [100001e2c80:100001e2cbf]
[1138750]mem_ctrl.cc accessAndRespond:ReadExReq [100001e2c80:100001e2cbf]
[1149750]mem_ctrl.cc processRespondEvent:ReadExReq [1e2c80:1e2cbf]
[1149750]mem_ctrl.cc accessAndRespond:ReadExReq [1e2c80:1e2cbf]
[1194000]mem_ctrl.cc recvTimingReq:ReadExReq [100001e2c40:100001e2c7f]
[1194000]mem_ctrl.cc addToReadQueue:ReadExReq [100001e2c40:100001e2c7f]
[1194000]mem_ctrl.cc doBurstAccess:ReadExReq [100001e2c40:100001e2c7f]
[1203000]mem_ctrl.cc recvTimingReq:ReadSharedReq [130a00:130a3f] IF
[1203000]mem_ctrl.cc addToReadQueue:ReadSharedReq [130a00:130a3f] IF
[1203000]mem_ctrl.cc doBurstAccess:ReadSharedReq [130a00:130a3f] IF
[1212750]mem_ctrl.cc processRespondEvent:ReadExReq [100001e2c40:100001e2c7f]
[1212750]mem_ctrl.cc accessAndRespond:ReadExReq [100001e2c40:100001e2c7f]
[1221750]mem_ctrl.cc processRespondEvent:ReadSharedReq [130a00:130a3f] IF
[1221750]mem_ctrl.cc accessAndRespond:ReadSharedReq [130a00:130a3f] IF
[1266000]mem_ctrl.cc recvTimingReq:ReadSharedReq [10000130b00:10000130b3f] IF
[1266000]mem_ctrl.cc addToReadQueue:ReadSharedReq [10000130b00:10000130b3f] IF
[1266000]mem_ctrl.cc doBurstAccess:ReadSharedReq [10000130b00:10000130b3f] IF
[1284000]mem_ctrl.cc recvTimingReq:ReadSharedReq [185b40:185b7f]
[1284000]mem_ctrl.cc addToReadQueue:ReadSharedReq [185b40:185b7f]
[1284000]mem_ctrl.cc doBurstAccess:ReadSharedReq [185b40:185b7f]
[1284750]mem_ctrl.cc processRespondEvent:ReadSharedReq [10000130b00:10000130b3f] IF
[1284750]mem_ctrl.cc accessAndRespond:ReadSharedReq [10000130b00:10000130b3f] IF
[1330250]mem_ctrl.cc processRespondEvent:ReadSharedReq [185b40:185b7f]
[1330250]mem_ctrl.cc accessAndRespond:ReadSharedReq [185b40:185b7f]
[1347000]mem_ctrl.cc recvTimingReq:ReadSharedReq [10000185b40:10000185b7f]
[1347000]mem_ctrl.cc addToReadQueue:ReadSharedReq [10000185b40:10000185b7f]
[1347000]mem_ctrl.cc doBurstAccess:ReadSharedReq [10000185b40:10000185b7f]
[1387000]mem_ctrl.cc recvTimingReq:ReadSharedReq [130b40:130b7f] IF
[1387000]mem_ctrl.cc addToReadQueue:ReadSharedReq [130b40:130b7f] IF
[1387000]mem_ctrl.cc doBurstAccess:ReadSharedReq [130b40:130b7f] IF
[1393250]mem_ctrl.cc processRespondEvent:ReadSharedReq [10000185b40:10000185b7f]
[1393250]mem_ctrl.cc accessAndRespond:ReadSharedReq [10000185b40:10000185b7f]
[1405750]mem_ctrl.cc processRespondEvent:ReadSharedReq [130b40:130b7f] IF
[1405750]mem_ctrl.cc accessAndRespond:ReadSharedReq [130b40:130b7f] IF
[1450000]mem_ctrl.cc recvTimingReq:ReadSharedReq [10000130c40:10000130c7f] IF
[1450000]mem_ctrl.cc addToReadQueue:ReadSharedReq [10000130c40:10000130c7f] IF
[1450000]mem_ctrl.cc doBurstAccess:ReadSharedReq [10000130c40:10000130c7f] IF
[1468750]mem_ctrl.cc processRespondEvent:ReadSharedReq [10000130c40:10000130c7f] IF
[1468750]mem_ctrl.cc accessAndRespond:ReadSharedReq [10000130c40:10000130c7f] IF
[1473000]mem_ctrl.cc recvTimingReq:ReadSharedReq [185b00:185b3f]
[1473000]mem_ctrl.cc addToReadQueue:ReadSharedReq [185b00:185b3f]
[1473000]mem_ctrl.cc doBurstAccess:ReadSharedReq [185b00:185b3f]
[1491750]mem_ctrl.cc processRespondEvent:ReadSharedReq [185b00:185b3f]
[1491750]mem_ctrl.cc accessAndRespond:ReadSharedReq [185b00:185b3f]
[1536000]mem_ctrl.cc recvTimingReq:ReadSharedReq [10000185b00:10000185b3f]
[1536000]mem_ctrl.cc addToReadQueue:ReadSharedReq [10000185b00:10000185b3f]
[1536000]mem_ctrl.cc doBurstAccess:ReadSharedReq [10000185b00:10000185b3f]
[1548000]mem_ctrl.cc recvTimingReq:ReadSharedReq [130c40:130c7f] IF
[1548000]mem_ctrl.cc addToReadQueue:ReadSharedReq [130c40:130c7f] IF
[1548000]mem_ctrl.cc doBurstAccess:ReadSharedReq [130c40:130c7f] IF
[1554750]mem_ctrl.cc processRespondEvent:ReadSharedReq [10000185b00:10000185b3f]
[1554750]mem_ctrl.cc accessAndRespond:ReadSharedReq [10000185b00:10000185b3f]
[1566750]mem_ctrl.cc processRespondEvent:ReadSharedReq [130c40:130c7f] IF
[1566750]mem_ctrl.cc accessAndRespond:ReadSharedReq [130c40:130c7f] IF
[1611000]mem_ctrl.cc recvTimingReq:ReadSharedReq [10000130d40:10000130d7f] IF
[1611000]mem_ctrl.cc addToReadQueue:ReadSharedReq [10000130d40:10000130d7f] IF
[1611000]mem_ctrl.cc doBurstAccess:ReadSharedReq [10000130d40:10000130d7f] IF
[1629750]mem_ctrl.cc processRespondEvent:ReadSharedReq [10000130d40:10000130d7f] IF
[1629750]mem_ctrl.cc accessAndRespond:ReadSharedReq [10000130d40:10000130d7f] IF
[1639000]mem_ctrl.cc recvTimingReq:ReadSharedReq [130d00:130d3f] IF
[1639000]mem_ctrl.cc addToReadQueue:ReadSharedReq [130d00:130d3f] IF
[1639000]mem_ctrl.cc doBurstAccess:ReadSharedReq [130d00:130d3f] IF
[1657750]mem_ctrl.cc processRespondEvent:ReadSharedReq [130d00:130d3f] IF
[1657750]mem_ctrl.cc accessAndRespond:ReadSharedReq [130d00:130d3f] IF
[1702000]mem_ctrl.cc recvTimingReq:ReadSharedReq [10000130e00:10000130e3f] IF
[1702000]mem_ctrl.cc addToReadQueue:ReadSharedReq [10000130e00:10000130e3f] IF
[1702000]mem_ctrl.cc doBurstAccess:ReadSharedReq [10000130e00:10000130e3f] IF
[1715000]mem_ctrl.cc recvTimingReq:ReadSharedReq [1e2c40:1e2c7f]
[1715000]mem_ctrl.cc addToReadQueue:ReadSharedReq [1e2c40:1e2c7f]
[1715000]mem_ctrl.cc doBurstAccess:ReadSharedReq [1e2c40:1e2c7f]
[1720750]mem_ctrl.cc processRespondEvent:ReadSharedReq [10000130e00:10000130e3f] IF
[1720750]mem_ctrl.cc accessAndRespond:ReadSharedReq [10000130e00:10000130e3f] IF
[1733750]mem_ctrl.cc processRespondEvent:ReadSharedReq [1e2c40:1e2c7f]
[1733750]mem_ctrl.cc accessAndRespond:ReadSharedReq [1e2c40:1e2c7f]
[1794000]mem_ctrl.cc recvTimingReq:ReadSharedReq [1e2e80:1e2ebf]
[1794000]mem_ctrl.cc addToReadQueue:ReadSharedReq [1e2e80:1e2ebf]
[1794000]mem_ctrl.cc doBurstAccess:ReadSharedReq [1e2e80:1e2ebf]
[1800000]mem_ctrl.cc recvTimingReq:ReadSharedReq [10000130d00:10000130d3f] IF
[1800000]mem_ctrl.cc addToReadQueue:ReadSharedReq [10000130d00:10000130d3f] IF
[1800000]mem_ctrl.cc doBurstAccess:ReadSharedReq [10000130d00:10000130d3f] IF
[1812750]mem_ctrl.cc processRespondEvent:ReadSharedReq [1e2e80:1e2ebf]
[1812750]mem_ctrl.cc accessAndRespond:ReadSharedReq [1e2e80:1e2ebf]
[1818750]mem_ctrl.cc processRespondEvent:ReadSharedReq [10000130d00:10000130d3f] IF
[1818750]mem_ctrl.cc accessAndRespond:ReadSharedReq [10000130d00:10000130d3f] IF
[1879000]mem_ctrl.cc recvTimingReq:ReadSharedReq [130c00:130c3f] IF
[1879000]mem_ctrl.cc addToReadQueue:ReadSharedReq [130c00:130c3f] IF
[1879000]mem_ctrl.cc doBurstAccess:ReadSharedReq [130c00:130c3f] IF
[1880000]mem_ctrl.cc recvTimingReq:ReadSharedReq [100001e2e80:100001e2ebf]
[1880000]mem_ctrl.cc addToReadQueue:ReadSharedReq [100001e2e80:100001e2ebf]
[1880000]mem_ctrl.cc doBurstAccess:ReadSharedReq [100001e2e80:100001e2ebf]
[1897750]mem_ctrl.cc processRespondEvent:ReadSharedReq [130c00:130c3f] IF
[1897750]mem_ctrl.cc accessAndRespond:ReadSharedReq [130c00:130c3f] IF
[1898750]mem_ctrl.cc processRespondEvent:ReadSharedReq [100001e2e80:100001e2ebf]
[1898750]mem_ctrl.cc accessAndRespond:ReadSharedReq [100001e2e80:100001e2ebf]
[1967000]mem_ctrl.cc recvTimingReq:ReadSharedReq [10000130e40:10000130e7f] IF
[1967000]mem_ctrl.cc addToReadQueue:ReadSharedReq [10000130e40:10000130e7f] IF
[1967000]mem_ctrl.cc doBurstAccess:ReadSharedReq [10000130e40:10000130e7f] IF
[1971000]mem_ctrl.cc recvTimingReq:ReadSharedReq [130d40:130d7f] IF
[1971000]mem_ctrl.cc addToReadQueue:ReadSharedReq [130d40:130d7f] IF
[1971000]mem_ctrl.cc doBurstAccess:ReadSharedReq [130d40:130d7f] IF
[1985750]mem_ctrl.cc processRespondEvent:ReadSharedReq [10000130e40:10000130e7f] IF
[1985750]mem_ctrl.cc accessAndRespond:ReadSharedReq [10000130e40:10000130e7f] IF
[1989750]mem_ctrl.cc processRespondEvent:ReadSharedReq [130d40:130d7f] IF
[1989750]mem_ctrl.cc accessAndRespond:ReadSharedReq [130d40:130d7f] IF
[2044000]mem_ctrl.cc recvTimingReq:ReadSharedReq [10000130e80:10000130ebf] IF
[2044000]mem_ctrl.cc addToReadQueue:ReadSharedReq [10000130e80:10000130ebf] IF
[2044000]mem_ctrl.cc doBurstAccess:ReadSharedReq [10000130e80:10000130ebf] IF
[2049000]mem_ctrl.cc recvTimingReq:ReadSharedReq [130d80:130dbf] IF
[2049000]mem_ctrl.cc addToReadQueue:ReadSharedReq [130d80:130dbf] IF
[2049000]mem_ctrl.cc doBurstAccess:ReadSharedReq [130d80:130dbf] IF
[2062750]mem_ctrl.cc processRespondEvent:ReadSharedReq [10000130e80:10000130ebf] IF
[2062750]mem_ctrl.cc accessAndRespond:ReadSharedReq [10000130e80:10000130ebf] IF
[2067750]mem_ctrl.cc processRespondEvent:ReadSharedReq [130d80:130dbf] IF
[2067750]mem_ctrl.cc accessAndRespond:ReadSharedReq [130d80:130dbf] IF
[2129000]mem_ctrl.cc recvTimingReq:ReadSharedReq [10000130b40:10000130b7f] IF
[2129000]mem_ctrl.cc addToReadQueue:ReadSharedReq [10000130b40:10000130b7f] IF
[2129000]mem_ctrl.cc doBurstAccess:ReadSharedReq [10000130b40:10000130b7f] IF
[2134000]mem_ctrl.cc recvTimingReq:ReadSharedReq [130a40:130a7f] IF
[2134000]mem_ctrl.cc addToReadQueue:ReadSharedReq [130a40:130a7f] IF
[2134000]mem_ctrl.cc doBurstAccess:ReadSharedReq [130a40:130a7f] IF
[2147750]mem_ctrl.cc processRespondEvent:ReadSharedReq [10000130b40:10000130b7f] IF
[2147750]mem_ctrl.cc accessAndRespond:ReadSharedReq [10000130b40:10000130b7f] IF
[2152750]mem_ctrl.cc processRespondEvent:ReadSharedReq [130a40:130a7f] IF
[2152750]mem_ctrl.cc accessAndRespond:ReadSharedReq [130a40:130a7f] IF
[2227000]mem_ctrl.cc recvTimingReq:ReadSharedReq [1e2ec0:1e2eff]
[2227000]mem_ctrl.cc addToReadQueue:ReadSharedReq [1e2ec0:1e2eff]
[2227000]mem_ctrl.cc doBurstAccess:ReadSharedReq [1e2ec0:1e2eff]
[2234000]mem_ctrl.cc recvTimingReq:ReadSharedReq [100001e2ec0:100001e2eff]
[2234000]mem_ctrl.cc addToReadQueue:ReadSharedReq [100001e2ec0:100001e2eff]
[2234000]mem_ctrl.cc doBurstAccess:ReadSharedReq [100001e2ec0:100001e2eff]
[2245750]mem_ctrl.cc processRespondEvent:ReadSharedReq [1e2ec0:1e2eff]
[2245750]mem_ctrl.cc accessAndRespond:ReadSharedReq [1e2ec0:1e2eff]
[2252750]mem_ctrl.cc processRespondEvent:ReadSharedReq [100001e2ec0:100001e2eff]
[2252750]mem_ctrl.cc accessAndRespond:ReadSharedReq [100001e2ec0:100001e2eff]
[2343000]mem_ctrl.cc recvTimingReq:ReadSharedReq [10000130dc0:10000130dff] IF
[2343000]mem_ctrl.cc addToReadQueue:ReadSharedReq [10000130dc0:10000130dff] IF
[2343000]mem_ctrl.cc doBurstAccess:ReadSharedReq [10000130dc0:10000130dff] IF
[2348000]mem_ctrl.cc recvTimingReq:ReadSharedReq [130cc0:130cff] IF
[2348000]mem_ctrl.cc addToReadQueue:ReadSharedReq [130cc0:130cff] IF
[2348000]mem_ctrl.cc doBurstAccess:ReadSharedReq [130cc0:130cff] IF
[2361750]mem_ctrl.cc processRespondEvent:ReadSharedReq [10000130dc0:10000130dff] IF
[2361750]mem_ctrl.cc accessAndRespond:ReadSharedReq [10000130dc0:10000130dff] IF
[2366750]mem_ctrl.cc processRespondEvent:ReadSharedReq [130cc0:130cff] IF
[2366750]mem_ctrl.cc accessAndRespond:ReadSharedReq [130cc0:130cff] IF
[2422000]mem_ctrl.cc recvTimingReq:ReadSharedReq [1e2f00:1e2f3f]
[2422000]mem_ctrl.cc addToReadQueue:ReadSharedReq [1e2f00:1e2f3f]
[2422000]mem_ctrl.cc doBurstAccess:ReadSharedReq [1e2f00:1e2f3f]
[2434000]mem_ctrl.cc recvTimingReq:ReadSharedReq [100001e2f00:100001e2f3f]
[2434000]mem_ctrl.cc addToReadQueue:ReadSharedReq [100001e2f00:100001e2f3f]
[2434000]mem_ctrl.cc doBurstAccess:ReadSharedReq [100001e2f00:100001e2f3f]
[2440750]mem_ctrl.cc processRespondEvent:ReadSharedReq [1e2f00:1e2f3f]
[2440750]mem_ctrl.cc accessAndRespond:ReadSharedReq [1e2f00:1e2f3f]
[2452750]mem_ctrl.cc processRespondEvent:ReadSharedReq [100001e2f00:100001e2f3f]
[2452750]mem_ctrl.cc accessAndRespond:ReadSharedReq [100001e2f00:100001e2f3f]
[2519000]mem_ctrl.cc recvTimingReq:ReadSharedReq [10000130d80:10000130dbf] IF
[2519000]mem_ctrl.cc addToReadQueue:ReadSharedReq [10000130d80:10000130dbf] IF
[2519000]mem_ctrl.cc doBurstAccess:ReadSharedReq [10000130d80:10000130dbf] IF
[2524000]mem_ctrl.cc recvTimingReq:ReadSharedReq [130c80:130cbf] IF
[2524000]mem_ctrl.cc addToReadQueue:ReadSharedReq [130c80:130cbf] IF
[2524000]mem_ctrl.cc doBurstAccess:ReadSharedReq [130c80:130cbf] IF
[2537750]mem_ctrl.cc processRespondEvent:ReadSharedReq [10000130d80:10000130dbf] IF
[2537750]mem_ctrl.cc accessAndRespond:ReadSharedReq [10000130d80:10000130dbf] IF
[2542750]mem_ctrl.cc processRespondEvent:ReadSharedReq [130c80:130cbf] IF
[2542750]mem_ctrl.cc accessAndRespond:ReadSharedReq [130c80:130cbf] IF
[2626000]mem_ctrl.cc recvTimingReq:ReadSharedReq [10000130cc0:10000130cff] IF
[2626000]mem_ctrl.cc addToReadQueue:ReadSharedReq [10000130cc0:10000130cff] IF
[2626000]mem_ctrl.cc doBurstAccess:ReadSharedReq [10000130cc0:10000130cff] IF
[2631000]mem_ctrl.cc recvTimingReq:ReadSharedReq [130bc0:130bff] IF
[2631000]mem_ctrl.cc addToReadQueue:ReadSharedReq [130bc0:130bff] IF
[2631000]mem_ctrl.cc doBurstAccess:ReadSharedReq [130bc0:130bff] IF
[2644750]mem_ctrl.cc processRespondEvent:ReadSharedReq [10000130cc0:10000130cff] IF
[2644750]mem_ctrl.cc accessAndRespond:ReadSharedReq [10000130cc0:10000130cff] IF
[2649750]mem_ctrl.cc processRespondEvent:ReadSharedReq [130bc0:130bff] IF
[2649750]mem_ctrl.cc accessAndRespond:ReadSharedReq [130bc0:130bff] IF
[2712000]mem_ctrl.cc recvTimingReq:ReadSharedReq [1e2f40:1e2f7f]
[2712000]mem_ctrl.cc addToReadQueue:ReadSharedReq [1e2f40:1e2f7f]
[2712000]mem_ctrl.cc doBurstAccess:ReadSharedReq [1e2f40:1e2f7f]
[2719000]mem_ctrl.cc recvTimingReq:ReadSharedReq [10000130c80:10000130cbf] IF
[2719000]mem_ctrl.cc addToReadQueue:ReadSharedReq [10000130c80:10000130cbf] IF
[2719000]mem_ctrl.cc doBurstAccess:ReadSharedReq [10000130c80:10000130cbf] IF
[2730750]mem_ctrl.cc processRespondEvent:ReadSharedReq [1e2f40:1e2f7f]
[2730750]mem_ctrl.cc accessAndRespond:ReadSharedReq [1e2f40:1e2f7f]
[2737750]mem_ctrl.cc processRespondEvent:ReadSharedReq [10000130c80:10000130cbf] IF
[2737750]mem_ctrl.cc accessAndRespond:ReadSharedReq [10000130c80:10000130cbf] IF
[2795000]mem_ctrl.cc recvTimingReq:ReadSharedReq [130b80:130bbf] IF
[2795000]mem_ctrl.cc addToReadQueue:ReadSharedReq [130b80:130bbf] IF
[2795000]mem_ctrl.cc doBurstAccess:ReadSharedReq [130b80:130bbf] IF
[2798000]mem_ctrl.cc recvTimingReq:ReadSharedReq [100001e2f40:100001e2f7f]
[2798000]mem_ctrl.cc addToReadQueue:ReadSharedReq [100001e2f40:100001e2f7f]
[2798000]mem_ctrl.cc doBurstAccess:ReadSharedReq [100001e2f40:100001e2f7f]
[2813750]mem_ctrl.cc processRespondEvent:ReadSharedReq [130b80:130bbf] IF
[2813750]mem_ctrl.cc accessAndRespond:ReadSharedReq [130b80:130bbf] IF
[2816750]mem_ctrl.cc processRespondEvent:ReadSharedReq [100001e2f40:100001e2f7f]
[2816750]mem_ctrl.cc accessAndRespond:ReadSharedReq [100001e2f40:100001e2f7f]
[2924000]mem_ctrl.cc recvTimingReq:ReadExReq [100001e1980:100001e19bf]
[2924000]mem_ctrl.cc addToReadQueue:ReadExReq [100001e1980:100001e19bf]
[2924000]mem_ctrl.cc doBurstAccess:ReadExReq [100001e1980:100001e19bf]
[2927000]mem_ctrl.cc recvTimingReq:ReadExReq [1e1980:1e19bf]
[2927000]mem_ctrl.cc addToReadQueue:ReadExReq [1e1980:1e19bf]
[2927000]mem_ctrl.cc doBurstAccess:ReadExReq [1e1980:1e19bf]
[2942750]mem_ctrl.cc processRespondEvent:ReadExReq [100001e1980:100001e19bf]
[2942750]mem_ctrl.cc accessAndRespond:ReadExReq [100001e1980:100001e19bf]
[2945750]mem_ctrl.cc processRespondEvent:ReadExReq [1e1980:1e19bf]
[2945750]mem_ctrl.cc accessAndRespond:ReadExReq [1e1980:1e19bf]
[2996000]mem_ctrl.cc recvTimingReq:ReadSharedReq [10000130b80:10000130bbf] IF
[2996000]mem_ctrl.cc addToReadQueue:ReadSharedReq [10000130b80:10000130bbf] IF
[2996000]mem_ctrl.cc doBurstAccess:ReadSharedReq [10000130b80:10000130bbf] IF
[3001000]mem_ctrl.cc recvTimingReq:ReadSharedReq [130a80:130abf] IF
[3001000]mem_ctrl.cc addToReadQueue:ReadSharedReq [130a80:130abf] IF
[3001000]mem_ctrl.cc doBurstAccess:ReadSharedReq [130a80:130abf] IF
[3014750]mem_ctrl.cc processRespondEvent:ReadSharedReq [10000130b80:10000130bbf] IF
[3014750]mem_ctrl.cc accessAndRespond:ReadSharedReq [10000130b80:10000130bbf] IF
[3019750]mem_ctrl.cc processRespondEvent:ReadSharedReq [130a80:130abf] IF
[3019750]mem_ctrl.cc accessAndRespond:ReadSharedReq [130a80:130abf] IF
[3071000]mem_ctrl.cc recvTimingReq:ReadExReq [100001d6e40:100001d6e7f]
[3071000]mem_ctrl.cc addToReadQueue:ReadExReq [100001d6e40:100001d6e7f]
[3071000]mem_ctrl.cc doBurstAccess:ReadExReq [100001d6e40:100001d6e7f]
[3076000]mem_ctrl.cc recvTimingReq:ReadExReq [1d6e40:1d6e7f]
[3076000]mem_ctrl.cc addToReadQueue:ReadExReq [1d6e40:1d6e7f]
[3076000]mem_ctrl.cc doBurstAccess:ReadExReq [1d6e40:1d6e7f]
[3089750]mem_ctrl.cc processRespondEvent:ReadExReq [100001d6e40:100001d6e7f]
[3089750]mem_ctrl.cc accessAndRespond:ReadExReq [100001d6e40:100001d6e7f]
[3094750]mem_ctrl.cc processRespondEvent:ReadExReq [1d6e40:1d6e7f]
[3094750]mem_ctrl.cc accessAndRespond:ReadExReq [1d6e40:1d6e7f]
[3150000]mem_ctrl.cc recvTimingReq:ReadExReq [100001e1680:100001e16bf]
[3150000]mem_ctrl.cc addToReadQueue:ReadExReq [100001e1680:100001e16bf]
[3150000]mem_ctrl.cc doBurstAccess:ReadExReq [100001e1680:100001e16bf]
[3155000]mem_ctrl.cc recvTimingReq:ReadExReq [1e1680:1e16bf]
[3155000]mem_ctrl.cc addToReadQueue:ReadExReq [1e1680:1e16bf]
[3155000]mem_ctrl.cc doBurstAccess:ReadExReq [1e1680:1e16bf]
[3168750]mem_ctrl.cc processRespondEvent:ReadExReq [100001e1680:100001e16bf]
[3168750]mem_ctrl.cc accessAndRespond:ReadExReq [100001e1680:100001e16bf]
[3173750]mem_ctrl.cc processRespondEvent:ReadExReq [1e1680:1e16bf]
[3173750]mem_ctrl.cc accessAndRespond:ReadExReq [1e1680:1e16bf]
[3228000]mem_ctrl.cc recvTimingReq:ReadSharedReq [10000130bc0:10000130bff] IF
[3228000]mem_ctrl.cc addToReadQueue:ReadSharedReq [10000130bc0:10000130bff] IF
[3228000]mem_ctrl.cc doBurstAccess:ReadSharedReq [10000130bc0:10000130bff] IF
[3233000]mem_ctrl.cc recvTimingReq:ReadSharedReq [130ac0:130aff] IF
[3233000]mem_ctrl.cc addToReadQueue:ReadSharedReq [130ac0:130aff] IF
[3233000]mem_ctrl.cc doBurstAccess:ReadSharedReq [130ac0:130aff] IF
[3246750]mem_ctrl.cc processRespondEvent:ReadSharedReq [10000130bc0:10000130bff] IF
[3246750]mem_ctrl.cc accessAndRespond:ReadSharedReq [10000130bc0:10000130bff] IF
[3251750]mem_ctrl.cc processRespondEvent:ReadSharedReq [130ac0:130aff] IF
[3251750]mem_ctrl.cc accessAndRespond:ReadSharedReq [130ac0:130aff] IF
[3329000]mem_ctrl.cc recvTimingReq:ReadSharedReq [10000130c00:10000130c3f] IF
[3329000]mem_ctrl.cc addToReadQueue:ReadSharedReq [10000130c00:10000130c3f] IF
[3329000]mem_ctrl.cc doBurstAccess:ReadSharedReq [10000130c00:10000130c3f] IF
[3334000]mem_ctrl.cc recvTimingReq:ReadSharedReq [130b00:130b3f] IF
[3334000]mem_ctrl.cc addToReadQueue:ReadSharedReq [130b00:130b3f] IF
[3334000]mem_ctrl.cc doBurstAccess:ReadSharedReq [130b00:130b3f] IF
[3361500]mem_ctrl.cc processRespondEvent:ReadSharedReq [10000130c00:10000130c3f] IF
[3361500]mem_ctrl.cc accessAndRespond:ReadSharedReq [10000130c00:10000130c3f] IF
[3366500]mem_ctrl.cc processRespondEvent:ReadSharedReq [130b00:130b3f] IF
[3366500]mem_ctrl.cc accessAndRespond:ReadSharedReq [130b00:130b3f] IF
[3430000]mem_ctrl.cc recvTimingReq:ReadExReq [100001d8680:100001d86bf]
[3430000]mem_ctrl.cc addToReadQueue:ReadExReq [100001d8680:100001d86bf]
[3430000]mem_ctrl.cc doBurstAccess:ReadExReq [100001d8680:100001d86bf]
[3435000]mem_ctrl.cc recvTimingReq:ReadExReq [1d8680:1d86bf]
[3435000]mem_ctrl.cc addToReadQueue:ReadExReq [1d8680:1d86bf]
[3435000]mem_ctrl.cc doBurstAccess:ReadExReq [1d8680:1d86bf]
[3462500]mem_ctrl.cc processRespondEvent:ReadExReq [100001d8680:100001d86bf]
[3462500]mem_ctrl.cc accessAndRespond:ReadExReq [100001d8680:100001d86bf]
[3467500]mem_ctrl.cc processRespondEvent:ReadExReq [1d8680:1d86bf]
[3467500]mem_ctrl.cc accessAndRespond:ReadExReq [1d8680:1d86bf]
[3541000]mem_ctrl.cc recvTimingReq:ReadSharedReq [10000132740:1000013277f] IF
[3541000]mem_ctrl.cc addToReadQueue:ReadSharedReq [10000132740:1000013277f] IF
[3541000]mem_ctrl.cc doBurstAccess:ReadSharedReq [10000132740:1000013277f] IF
[3546000]mem_ctrl.cc recvTimingReq:ReadSharedReq [132640:13267f] IF
[3546000]mem_ctrl.cc addToReadQueue:ReadSharedReq [132640:13267f] IF
[3546000]mem_ctrl.cc doBurstAccess:ReadSharedReq [132640:13267f] IF
[3573500]mem_ctrl.cc processRespondEvent:ReadSharedReq [10000132740:1000013277f] IF
[3573500]mem_ctrl.cc accessAndRespond:ReadSharedReq [10000132740:1000013277f] IF
[3578500]mem_ctrl.cc processRespondEvent:ReadSharedReq [132640:13267f] IF
[3578500]mem_ctrl.cc accessAndRespond:ReadSharedReq [132640:13267f] IF
[3635000]mem_ctrl.cc recvTimingReq:ReadSharedReq [100000a8e40:100000a8e7f] IF
[3635000]mem_ctrl.cc addToReadQueue:ReadSharedReq [100000a8e40:100000a8e7f] IF
[3635000]mem_ctrl.cc doBurstAccess:ReadSharedReq [100000a8e40:100000a8e7f] IF
[3640000]mem_ctrl.cc recvTimingReq:ReadSharedReq [a8d40:a8d7f] IF
[3640000]mem_ctrl.cc addToReadQueue:ReadSharedReq [a8d40:a8d7f] IF
[3640000]mem_ctrl.cc doBurstAccess:ReadSharedReq [a8d40:a8d7f] IF
[3653750]mem_ctrl.cc processRespondEvent:ReadSharedReq [100000a8e40:100000a8e7f] IF
[3653750]mem_ctrl.cc accessAndRespond:ReadSharedReq [100000a8e40:100000a8e7f] IF
[3658750]mem_ctrl.cc processRespondEvent:ReadSharedReq [a8d40:a8d7f] IF
[3658750]mem_ctrl.cc accessAndRespond:ReadSharedReq [a8d40:a8d7f] IF
[3710000]mem_ctrl.cc recvTimingReq:ReadSharedReq [1000012f780:1000012f7bf] IF
[3710000]mem_ctrl.cc addToReadQueue:ReadSharedReq [1000012f780:1000012f7bf] IF
[3710000]mem_ctrl.cc doBurstAccess:ReadSharedReq [1000012f780:1000012f7bf] IF
[3715000]mem_ctrl.cc recvTimingReq:ReadSharedReq [12f680:12f6bf] IF
[3715000]mem_ctrl.cc addToReadQueue:ReadSharedReq [12f680:12f6bf] IF
[3715000]mem_ctrl.cc doBurstAccess:ReadSharedReq [12f680:12f6bf] IF
[3742500]mem_ctrl.cc processRespondEvent:ReadSharedReq [1000012f780:1000012f7bf] IF
[3742500]mem_ctrl.cc accessAndRespond:ReadSharedReq [1000012f780:1000012f7bf] IF
[3747500]mem_ctrl.cc processRespondEvent:ReadSharedReq [12f680:12f6bf] IF
[3747500]mem_ctrl.cc accessAndRespond:ReadSharedReq [12f680:12f6bf] IF
[3825000]mem_ctrl.cc recvTimingReq:ReadSharedReq [1000012f7c0:1000012f7ff] IF
[3825000]mem_ctrl.cc addToReadQueue:ReadSharedReq [1000012f7c0:1000012f7ff] IF
[3825000]mem_ctrl.cc doBurstAccess:ReadSharedReq [1000012f7c0:1000012f7ff] IF
[3830000]mem_ctrl.cc recvTimingReq:ReadSharedReq [12f6c0:12f6ff] IF
[3830000]mem_ctrl.cc addToReadQueue:ReadSharedReq [12f6c0:12f6ff] IF
[3830000]mem_ctrl.cc doBurstAccess:ReadSharedReq [12f6c0:12f6ff] IF
[3843750]mem_ctrl.cc processRespondEvent:ReadSharedReq [1000012f7c0:1000012f7ff] IF
[3843750]mem_ctrl.cc accessAndRespond:ReadSharedReq [1000012f7c0:1000012f7ff] IF
[3848750]mem_ctrl.cc processRespondEvent:ReadSharedReq [12f6c0:12f6ff] IF
[3848750]mem_ctrl.cc accessAndRespond:ReadSharedReq [12f6c0:12f6ff] IF
[3904000]mem_ctrl.cc recvTimingReq:ReadSharedReq [1000012f940:1000012f97f] IF
[3904000]mem_ctrl.cc addToReadQueue:ReadSharedReq [1000012f940:1000012f97f] IF
[3904000]mem_ctrl.cc doBurstAccess:ReadSharedReq [1000012f940:1000012f97f] IF
[3909000]mem_ctrl.cc recvTimingReq:ReadSharedReq [12f840:12f87f] IF
[3909000]mem_ctrl.cc addToReadQueue:ReadSharedReq [12f840:12f87f] IF
[3909000]mem_ctrl.cc doBurstAccess:ReadSharedReq [12f840:12f87f] IF
[3922750]mem_ctrl.cc processRespondEvent:ReadSharedReq [1000012f940:1000012f97f] IF
[3922750]mem_ctrl.cc accessAndRespond:ReadSharedReq [1000012f940:1000012f97f] IF
[3927750]mem_ctrl.cc processRespondEvent:ReadSharedReq [12f840:12f87f] IF
[3927750]mem_ctrl.cc accessAndRespond:ReadSharedReq [12f840:12f87f] IF
[3995000]mem_ctrl.cc recvTimingReq:ReadExReq [100001e2d80:100001e2dbf]
[3995000]mem_ctrl.cc addToReadQueue:ReadExReq [100001e2d80:100001e2dbf]
[3995000]mem_ctrl.cc doBurstAccess:ReadExReq [100001e2d80:100001e2dbf]
[4000000]mem_ctrl.cc recvTimingReq:ReadExReq [1e2d80:1e2dbf]
[4000000]mem_ctrl.cc addToReadQueue:ReadExReq [1e2d80:1e2dbf]
[4000000]mem_ctrl.cc doBurstAccess:ReadExReq [1e2d80:1e2dbf]
[4013750]mem_ctrl.cc processRespondEvent:ReadExReq [100001e2d80:100001e2dbf]
[4013750]mem_ctrl.cc accessAndRespond:ReadExReq [100001e2d80:100001e2dbf]
[4018750]mem_ctrl.cc processRespondEvent:ReadExReq [1e2d80:1e2dbf]
[4018750]mem_ctrl.cc accessAndRespond:ReadExReq [1e2d80:1e2dbf]
[4077000]mem_ctrl.cc recvTimingReq:ReadExReq [100001e1740:100001e177f]
[4077000]mem_ctrl.cc addToReadQueue:ReadExReq [100001e1740:100001e177f]
[4077000]mem_ctrl.cc doBurstAccess:ReadExReq [100001e1740:100001e177f]
[4082000]mem_ctrl.cc recvTimingReq:ReadExReq [1e1740:1e177f]
[4082000]mem_ctrl.cc addToReadQueue:ReadExReq [1e1740:1e177f]
[4082000]mem_ctrl.cc doBurstAccess:ReadExReq [1e1740:1e177f]
[4095750]mem_ctrl.cc processRespondEvent:ReadExReq [100001e1740:100001e177f]
[4095750]mem_ctrl.cc accessAndRespond:ReadExReq [100001e1740:100001e177f]
[4100750]mem_ctrl.cc processRespondEvent:ReadExReq [1e1740:1e177f]
[4100750]mem_ctrl.cc accessAndRespond:ReadExReq [1e1740:1e177f]
[4151000]mem_ctrl.cc recvTimingReq:ReadSharedReq [100000a9480:100000a94bf] IF
[4151000]mem_ctrl.cc addToReadQueue:ReadSharedReq [100000a9480:100000a94bf] IF
[4151000]mem_ctrl.cc doBurstAccess:ReadSharedReq [100000a9480:100000a94bf] IF
[4156000]mem_ctrl.cc recvTimingReq:ReadSharedReq [a9380:a93bf] IF
[4156000]mem_ctrl.cc addToReadQueue:ReadSharedReq [a9380:a93bf] IF
[4156000]mem_ctrl.cc doBurstAccess:ReadSharedReq [a9380:a93bf] IF
[4169750]mem_ctrl.cc processRespondEvent:ReadSharedReq [100000a9480:100000a94bf] IF
[4169750]mem_ctrl.cc accessAndRespond:ReadSharedReq [100000a9480:100000a94bf] IF
[4174750]mem_ctrl.cc processRespondEvent:ReadSharedReq [a9380:a93bf] IF
[4174750]mem_ctrl.cc accessAndRespond:ReadSharedReq [a9380:a93bf] IF
[4223000]mem_ctrl.cc recvTimingReq:ReadSharedReq [100000a94c0:100000a94ff] IF
[4223000]mem_ctrl.cc addToReadQueue:ReadSharedReq [100000a94c0:100000a94ff] IF
[4223000]mem_ctrl.cc doBurstAccess:ReadSharedReq [100000a94c0:100000a94ff] IF
[4228000]mem_ctrl.cc recvTimingReq:ReadSharedReq [a93c0:a93ff] IF
[4228000]mem_ctrl.cc addToReadQueue:ReadSharedReq [a93c0:a93ff] IF
[4228000]mem_ctrl.cc doBurstAccess:ReadSharedReq [a93c0:a93ff] IF
[4241750]mem_ctrl.cc processRespondEvent:ReadSharedReq [100000a94c0:100000a94ff] IF
[4241750]mem_ctrl.cc accessAndRespond:ReadSharedReq [100000a94c0:100000a94ff] IF
[4246750]mem_ctrl.cc processRespondEvent:ReadSharedReq [a93c0:a93ff] IF
[4246750]mem_ctrl.cc accessAndRespond:ReadSharedReq [a93c0:a93ff] IF
[4297000]mem_ctrl.cc recvTimingReq:ReadSharedReq [100000a9600:100000a963f] IF
[4297000]mem_ctrl.cc addToReadQueue:ReadSharedReq [100000a9600:100000a963f] IF
[4297000]mem_ctrl.cc doBurstAccess:ReadSharedReq [100000a9600:100000a963f] IF
[4302000]mem_ctrl.cc recvTimingReq:ReadSharedReq [a9500:a953f] IF
[4302000]mem_ctrl.cc addToReadQueue:ReadSharedReq [a9500:a953f] IF
[4302000]mem_ctrl.cc doBurstAccess:ReadSharedReq [a9500:a953f] IF
[4315750]mem_ctrl.cc processRespondEvent:ReadSharedReq [100000a9600:100000a963f] IF
[4315750]mem_ctrl.cc accessAndRespond:ReadSharedReq [100000a9600:100000a963f] IF
[4320750]mem_ctrl.cc processRespondEvent:ReadSharedReq [a9500:a953f] IF
[4320750]mem_ctrl.cc accessAndRespond:ReadSharedReq [a9500:a953f] IF
[4370000]mem_ctrl.cc recvTimingReq:ReadSharedReq [100000a9640:100000a967f] IF
[4370000]mem_ctrl.cc addToReadQueue:ReadSharedReq [100000a9640:100000a967f] IF
[4370000]mem_ctrl.cc doBurstAccess:ReadSharedReq [100000a9640:100000a967f] IF
[4375000]mem_ctrl.cc recvTimingReq:ReadSharedReq [a9540:a957f] IF
[4375000]mem_ctrl.cc addToReadQueue:ReadSharedReq [a9540:a957f] IF
[4375000]mem_ctrl.cc doBurstAccess:ReadSharedReq [a9540:a957f] IF
[4388750]mem_ctrl.cc processRespondEvent:ReadSharedReq [100000a9640:100000a967f] IF
[4388750]mem_ctrl.cc accessAndRespond:ReadSharedReq [100000a9640:100000a967f] IF
[4393750]mem_ctrl.cc processRespondEvent:ReadSharedReq [a9540:a957f] IF
[4393750]mem_ctrl.cc accessAndRespond:ReadSharedReq [a9540:a957f] IF
[4457000]mem_ctrl.cc recvTimingReq:ReadSharedReq [100000a9500:100000a953f] IF
[4457000]mem_ctrl.cc addToReadQueue:ReadSharedReq [100000a9500:100000a953f] IF
[4457000]mem_ctrl.cc doBurstAccess:ReadSharedReq [100000a9500:100000a953f] IF
[4462000]mem_ctrl.cc recvTimingReq:ReadSharedReq [a9400:a943f] IF
[4462000]mem_ctrl.cc addToReadQueue:ReadSharedReq [a9400:a943f] IF
[4462000]mem_ctrl.cc doBurstAccess:ReadSharedReq [a9400:a943f] IF
[4475750]mem_ctrl.cc processRespondEvent:ReadSharedReq [100000a9500:100000a953f] IF
[4475750]mem_ctrl.cc accessAndRespond:ReadSharedReq [100000a9500:100000a953f] IF
[4480750]mem_ctrl.cc processRespondEvent:ReadSharedReq [a9400:a943f] IF
[4480750]mem_ctrl.cc accessAndRespond:ReadSharedReq [a9400:a943f] IF
[4533000]mem_ctrl.cc recvTimingReq:ReadSharedReq [100000a7f80:100000a7fbf] IF
[4533000]mem_ctrl.cc addToReadQueue:ReadSharedReq [100000a7f80:100000a7fbf] IF
[4533000]mem_ctrl.cc doBurstAccess:ReadSharedReq [100000a7f80:100000a7fbf] IF
[4538000]mem_ctrl.cc recvTimingReq:ReadSharedReq [a7e80:a7ebf] IF
[4538000]mem_ctrl.cc addToReadQueue:ReadSharedReq [a7e80:a7ebf] IF
[4538000]mem_ctrl.cc doBurstAccess:ReadSharedReq [a7e80:a7ebf] IF
[4565500]mem_ctrl.cc processRespondEvent:ReadSharedReq [100000a7f80:100000a7fbf] IF
[4565500]mem_ctrl.cc accessAndRespond:ReadSharedReq [100000a7f80:100000a7fbf] IF
[4570500]mem_ctrl.cc processRespondEvent:ReadSharedReq [a7e80:a7ebf] IF
[4570500]mem_ctrl.cc accessAndRespond:ReadSharedReq [a7e80:a7ebf] IF
[4630000]mem_ctrl.cc recvTimingReq:ReadExReq [100001e1780:100001e17bf]
[4630000]mem_ctrl.cc addToReadQueue:ReadExReq [100001e1780:100001e17bf]
[4630000]mem_ctrl.cc doBurstAccess:ReadExReq [100001e1780:100001e17bf]
[4635000]mem_ctrl.cc recvTimingReq:ReadExReq [1e1780:1e17bf]
[4635000]mem_ctrl.cc addToReadQueue:ReadExReq [1e1780:1e17bf]
[4635000]mem_ctrl.cc doBurstAccess:ReadExReq [1e1780:1e17bf]
[4648750]mem_ctrl.cc processRespondEvent:ReadExReq [100001e1780:100001e17bf]
[4648750]mem_ctrl.cc accessAndRespond:ReadExReq [100001e1780:100001e17bf]
[4653750]mem_ctrl.cc processRespondEvent:ReadExReq [1e1780:1e17bf]
[4653750]mem_ctrl.cc accessAndRespond:ReadExReq [1e1780:1e17bf]
[4712000]mem_ctrl.cc recvTimingReq:ReadSharedReq [100000a7fc0:100000a7fff] IF
[4712000]mem_ctrl.cc addToReadQueue:ReadSharedReq [100000a7fc0:100000a7fff] IF
[4712000]mem_ctrl.cc doBurstAccess:ReadSharedReq [100000a7fc0:100000a7fff] IF
[4717000]mem_ctrl.cc recvTimingReq:ReadSharedReq [a7ec0:a7eff] IF
[4717000]mem_ctrl.cc addToReadQueue:ReadSharedReq [a7ec0:a7eff] IF
[4717000]mem_ctrl.cc doBurstAccess:ReadSharedReq [a7ec0:a7eff] IF
[4730750]mem_ctrl.cc processRespondEvent:ReadSharedReq [100000a7fc0:100000a7fff] IF
[4730750]mem_ctrl.cc accessAndRespond:ReadSharedReq [100000a7fc0:100000a7fff] IF
[4735750]mem_ctrl.cc processRespondEvent:ReadSharedReq [a7ec0:a7eff] IF
[4735750]mem_ctrl.cc accessAndRespond:ReadSharedReq [a7ec0:a7eff] IF
[4808000]mem_ctrl.cc recvTimingReq:ReadSharedReq [100000a80c0:100000a80ff] IF
[4808000]mem_ctrl.cc addToReadQueue:ReadSharedReq [100000a80c0:100000a80ff] IF
[4808000]mem_ctrl.cc doBurstAccess:ReadSharedReq [100000a80c0:100000a80ff] IF
[4813000]mem_ctrl.cc recvTimingReq:ReadSharedReq [a7fc0:a7fff] IF
[4813000]mem_ctrl.cc addToReadQueue:ReadSharedReq [a7fc0:a7fff] IF
[4813000]mem_ctrl.cc doBurstAccess:ReadSharedReq [a7fc0:a7fff] IF
[4826750]mem_ctrl.cc processRespondEvent:ReadSharedReq [100000a80c0:100000a80ff] IF
[4826750]mem_ctrl.cc accessAndRespond:ReadSharedReq [100000a80c0:100000a80ff] IF
[4831750]mem_ctrl.cc processRespondEvent:ReadSharedReq [a7fc0:a7fff] IF
[4831750]mem_ctrl.cc accessAndRespond:ReadSharedReq [a7fc0:a7fff] IF
[4880000]mem_ctrl.cc recvTimingReq:ReadSharedReq [100000a8100:100000a813f] IF
[4880000]mem_ctrl.cc addToReadQueue:ReadSharedReq [100000a8100:100000a813f] IF
[4880000]mem_ctrl.cc doBurstAccess:ReadSharedReq [100000a8100:100000a813f] IF
[4885000]mem_ctrl.cc recvTimingReq:ReadSharedReq [a8000:a803f] IF
[4885000]mem_ctrl.cc addToReadQueue:ReadSharedReq [a8000:a803f] IF
[4885000]mem_ctrl.cc doBurstAccess:ReadSharedReq [a8000:a803f] IF
[4898750]mem_ctrl.cc processRespondEvent:ReadSharedReq [100000a8100:100000a813f] IF
[4898750]mem_ctrl.cc accessAndRespond:ReadSharedReq [100000a8100:100000a813f] IF
[4903750]mem_ctrl.cc processRespondEvent:ReadSharedReq [a8000:a803f] IF
[4903750]mem_ctrl.cc accessAndRespond:ReadSharedReq [a8000:a803f] IF
[4970000]mem_ctrl.cc recvTimingReq:ReadSharedReq [100000a8000:100000a803f] IF
[4970000]mem_ctrl.cc addToReadQueue:ReadSharedReq [100000a8000:100000a803f] IF
[4970000]mem_ctrl.cc doBurstAccess:ReadSharedReq [100000a8000:100000a803f] IF
[4975000]mem_ctrl.cc recvTimingReq:ReadSharedReq [a7f00:a7f3f] IF
[4975000]mem_ctrl.cc addToReadQueue:ReadSharedReq [a7f00:a7f3f] IF
[4975000]mem_ctrl.cc doBurstAccess:ReadSharedReq [a7f00:a7f3f] IF
[4988750]mem_ctrl.cc processRespondEvent:ReadSharedReq [100000a8000:100000a803f] IF
[4988750]mem_ctrl.cc accessAndRespond:ReadSharedReq [100000a8000:100000a803f] IF
[4993750]mem_ctrl.cc processRespondEvent:ReadSharedReq [a7f00:a7f3f] IF
[4993750]mem_ctrl.cc accessAndRespond:ReadSharedReq [a7f00:a7f3f] IF
[5057000]mem_ctrl.cc recvTimingReq:ReadExReq [100001e1800:100001e183f]
[5057000]mem_ctrl.cc addToReadQueue:ReadExReq [100001e1800:100001e183f]
[5057000]mem_ctrl.cc doBurstAccess:ReadExReq [100001e1800:100001e183f]
[5062000]mem_ctrl.cc recvTimingReq:ReadExReq [1e1800:1e183f]
[5062000]mem_ctrl.cc addToReadQueue:ReadExReq [1e1800:1e183f]
[5062000]mem_ctrl.cc doBurstAccess:ReadExReq [1e1800:1e183f]
[5075750]mem_ctrl.cc processRespondEvent:ReadExReq [100001e1800:100001e183f]
[5075750]mem_ctrl.cc accessAndRespond:ReadExReq [100001e1800:100001e183f]
[5080750]mem_ctrl.cc processRespondEvent:ReadExReq [1e1800:1e183f]
[5080750]mem_ctrl.cc accessAndRespond:ReadExReq [1e1800:1e183f]
[5136000]mem_ctrl.cc recvTimingReq:ReadExReq [100001e1840:100001e187f]
[5136000]mem_ctrl.cc addToReadQueue:ReadExReq [100001e1840:100001e187f]
[5136000]mem_ctrl.cc doBurstAccess:ReadExReq [100001e1840:100001e187f]
[5141000]mem_ctrl.cc recvTimingReq:ReadExReq [1e1840:1e187f]
[5141000]mem_ctrl.cc addToReadQueue:ReadExReq [1e1840:1e187f]
[5141000]mem_ctrl.cc doBurstAccess:ReadExReq [1e1840:1e187f]
[5154750]mem_ctrl.cc processRespondEvent:ReadExReq [100001e1840:100001e187f]
[5154750]mem_ctrl.cc accessAndRespond:ReadExReq [100001e1840:100001e187f]
[5159750]mem_ctrl.cc processRespondEvent:ReadExReq [1e1840:1e187f]
[5159750]mem_ctrl.cc accessAndRespond:ReadExReq [1e1840:1e187f]
[5209000]mem_ctrl.cc recvTimingReq:ReadSharedReq [100000a8040:100000a807f] IF
[5209000]mem_ctrl.cc addToReadQueue:ReadSharedReq [100000a8040:100000a807f] IF
[5209000]mem_ctrl.cc doBurstAccess:ReadSharedReq [100000a8040:100000a807f] IF
[5214000]mem_ctrl.cc recvTimingReq:ReadSharedReq [a7f40:a7f7f] IF
[5214000]mem_ctrl.cc addToReadQueue:ReadSharedReq [a7f40:a7f7f] IF
[5214000]mem_ctrl.cc doBurstAccess:ReadSharedReq [a7f40:a7f7f] IF
[5227750]mem_ctrl.cc processRespondEvent:ReadSharedReq [100000a8040:100000a807f] IF
[5227750]mem_ctrl.cc accessAndRespond:ReadSharedReq [100000a8040:100000a807f] IF
[5232750]mem_ctrl.cc processRespondEvent:ReadSharedReq [a7f40:a7f7f] IF
[5232750]mem_ctrl.cc accessAndRespond:ReadSharedReq [a7f40:a7f7f] IF
[5287000]mem_ctrl.cc recvTimingReq:ReadSharedReq [100000a8080:100000a80bf] IF
[5287000]mem_ctrl.cc addToReadQueue:ReadSharedReq [100000a8080:100000a80bf] IF
[5287000]mem_ctrl.cc doBurstAccess:ReadSharedReq [100000a8080:100000a80bf] IF
[5292000]mem_ctrl.cc recvTimingReq:ReadSharedReq [a7f80:a7fbf] IF
[5292000]mem_ctrl.cc addToReadQueue:ReadSharedReq [a7f80:a7fbf] IF
[5292000]mem_ctrl.cc doBurstAccess:ReadSharedReq [a7f80:a7fbf] IF
[5305750]mem_ctrl.cc processRespondEvent:ReadSharedReq [100000a8080:100000a80bf] IF
[5305750]mem_ctrl.cc accessAndRespond:ReadSharedReq [100000a8080:100000a80bf] IF
[5310750]mem_ctrl.cc processRespondEvent:ReadSharedReq [a7f80:a7fbf] IF
[5310750]mem_ctrl.cc accessAndRespond:ReadSharedReq [a7f80:a7fbf] IF
[5396000]mem_ctrl.cc recvTimingReq:ReadExReq [100001e17c0:100001e17ff]
[5396000]mem_ctrl.cc addToReadQueue:ReadExReq [100001e17c0:100001e17ff]
[5396000]mem_ctrl.cc doBurstAccess:ReadExReq [100001e17c0:100001e17ff]
[5401000]mem_ctrl.cc recvTimingReq:ReadExReq [1e17c0:1e17ff]
[5401000]mem_ctrl.cc addToReadQueue:ReadExReq [1e17c0:1e17ff]
[5401000]mem_ctrl.cc doBurstAccess:ReadExReq [1e17c0:1e17ff]
[5414750]mem_ctrl.cc processRespondEvent:ReadExReq [100001e17c0:100001e17ff]
[5414750]mem_ctrl.cc accessAndRespond:ReadExReq [100001e17c0:100001e17ff]
[5419750]mem_ctrl.cc processRespondEvent:ReadExReq [1e17c0:1e17ff]
[5419750]mem_ctrl.cc accessAndRespond:ReadExReq [1e17c0:1e17ff]
[5470000]mem_ctrl.cc recvTimingReq:ReadSharedReq [100000a9540:100000a957f] IF
[5470000]mem_ctrl.cc addToReadQueue:ReadSharedReq [100000a9540:100000a957f] IF
[5470000]mem_ctrl.cc doBurstAccess:ReadSharedReq [100000a9540:100000a957f] IF
[5475000]mem_ctrl.cc recvTimingReq:ReadSharedReq [a9440:a947f] IF
[5475000]mem_ctrl.cc addToReadQueue:ReadSharedReq [a9440:a947f] IF
[5475000]mem_ctrl.cc doBurstAccess:ReadSharedReq [a9440:a947f] IF
[5488750]mem_ctrl.cc processRespondEvent:ReadSharedReq [100000a9540:100000a957f] IF
[5488750]mem_ctrl.cc accessAndRespond:ReadSharedReq [100000a9540:100000a957f] IF
[5493750]mem_ctrl.cc processRespondEvent:ReadSharedReq [a9440:a947f] IF
[5493750]mem_ctrl.cc accessAndRespond:ReadSharedReq [a9440:a947f] IF
[5565000]mem_ctrl.cc recvTimingReq:ReadSharedReq [100000a9580:100000a95bf] IF
[5565000]mem_ctrl.cc addToReadQueue:ReadSharedReq [100000a9580:100000a95bf] IF
[5565000]mem_ctrl.cc doBurstAccess:ReadSharedReq [100000a9580:100000a95bf] IF
[5570000]mem_ctrl.cc recvTimingReq:ReadSharedReq [a9480:a94bf] IF
[5570000]mem_ctrl.cc addToReadQueue:ReadSharedReq [a9480:a94bf] IF
[5570000]mem_ctrl.cc doBurstAccess:ReadSharedReq [a9480:a94bf] IF
[5583750]mem_ctrl.cc processRespondEvent:ReadSharedReq [100000a9580:100000a95bf] IF
[5583750]mem_ctrl.cc accessAndRespond:ReadSharedReq [100000a9580:100000a95bf] IF
[5588750]mem_ctrl.cc processRespondEvent:ReadSharedReq [a9480:a94bf] IF
[5588750]mem_ctrl.cc accessAndRespond:ReadSharedReq [a9480:a94bf] IF
[5643000]mem_ctrl.cc recvTimingReq:ReadSharedReq [100000a8900:100000a893f] IF
[5643000]mem_ctrl.cc addToReadQueue:ReadSharedReq [100000a8900:100000a893f] IF
[5643000]mem_ctrl.cc doBurstAccess:ReadSharedReq [100000a8900:100000a893f] IF
[5648000]mem_ctrl.cc recvTimingReq:ReadSharedReq [a8800:a883f] IF
[5648000]mem_ctrl.cc addToReadQueue:ReadSharedReq [a8800:a883f] IF
[5648000]mem_ctrl.cc doBurstAccess:ReadSharedReq [a8800:a883f] IF
[5661750]mem_ctrl.cc processRespondEvent:ReadSharedReq [100000a8900:100000a893f] IF
[5661750]mem_ctrl.cc accessAndRespond:ReadSharedReq [100000a8900:100000a893f] IF
[5666750]mem_ctrl.cc processRespondEvent:ReadSharedReq [a8800:a883f] IF
[5666750]mem_ctrl.cc accessAndRespond:ReadSharedReq [a8800:a883f] IF
[5733000]mem_ctrl.cc recvTimingReq:ReadSharedReq [100000a8940:100000a897f] IF
[5733000]mem_ctrl.cc addToReadQueue:ReadSharedReq [100000a8940:100000a897f] IF
[5733000]mem_ctrl.cc doBurstAccess:ReadSharedReq [100000a8940:100000a897f] IF
[5738000]mem_ctrl.cc recvTimingReq:ReadSharedReq [a8840:a887f] IF
[5738000]mem_ctrl.cc addToReadQueue:ReadSharedReq [a8840:a887f] IF
[5738000]mem_ctrl.cc doBurstAccess:ReadSharedReq [a8840:a887f] IF
[5756750]mem_ctrl.cc processRespondEvent:ReadSharedReq [a8840:a887f] IF
[5756750]mem_ctrl.cc accessAndRespond:ReadSharedReq [a8840:a887f] IF
[5765500]mem_ctrl.cc processRespondEvent:ReadSharedReq [100000a8940:100000a897f] IF
[5765500]mem_ctrl.cc accessAndRespond:ReadSharedReq [100000a8940:100000a897f] IF
[5827000]mem_ctrl.cc recvTimingReq:ReadExReq [1e2b80:1e2bbf]
[5827000]mem_ctrl.cc addToReadQueue:ReadExReq [1e2b80:1e2bbf]
[5827000]mem_ctrl.cc doBurstAccess:ReadExReq [1e2b80:1e2bbf]
[5836000]mem_ctrl.cc recvTimingReq:ReadExReq [100001e2b80:100001e2bbf]
[5836000]mem_ctrl.cc addToReadQueue:ReadExReq [100001e2b80:100001e2bbf]
[5836000]mem_ctrl.cc doBurstAccess:ReadExReq [100001e2b80:100001e2bbf]
[5845750]mem_ctrl.cc processRespondEvent:ReadExReq [1e2b80:1e2bbf]
[5845750]mem_ctrl.cc accessAndRespond:ReadExReq [1e2b80:1e2bbf]
[5854750]mem_ctrl.cc processRespondEvent:ReadExReq [100001e2b80:100001e2bbf]
[5854750]mem_ctrl.cc accessAndRespond:ReadExReq [100001e2b80:100001e2bbf]
[5904000]mem_ctrl.cc recvTimingReq:ReadSharedReq [a8880:a88bf] IF
[5904000]mem_ctrl.cc addToReadQueue:ReadSharedReq [a8880:a88bf] IF
[5904000]mem_ctrl.cc doBurstAccess:ReadSharedReq [a8880:a88bf] IF
[5913000]mem_ctrl.cc recvTimingReq:ReadSharedReq [100000a8980:100000a89bf] IF
[5913000]mem_ctrl.cc addToReadQueue:ReadSharedReq [100000a8980:100000a89bf] IF
[5913000]mem_ctrl.cc doBurstAccess:ReadSharedReq [100000a8980:100000a89bf] IF
[5922750]mem_ctrl.cc processRespondEvent:ReadSharedReq [a8880:a88bf] IF
[5922750]mem_ctrl.cc accessAndRespond:ReadSharedReq [a8880:a88bf] IF
[5931750]mem_ctrl.cc processRespondEvent:ReadSharedReq [100000a8980:100000a89bf] IF
[5931750]mem_ctrl.cc accessAndRespond:ReadSharedReq [100000a8980:100000a89bf] IF
[6000000]mem_ctrl.cc recvTimingReq:ReadSharedReq [a88c0:a88ff] IF
[6000000]mem_ctrl.cc addToReadQueue:ReadSharedReq [a88c0:a88ff] IF
[6000000]mem_ctrl.cc doBurstAccess:ReadSharedReq [a88c0:a88ff] IF
[6009000]mem_ctrl.cc recvTimingReq:ReadSharedReq [100000a89c0:100000a89ff] IF
[6009000]mem_ctrl.cc addToReadQueue:ReadSharedReq [100000a89c0:100000a89ff] IF
[6009000]mem_ctrl.cc doBurstAccess:ReadSharedReq [100000a89c0:100000a89ff] IF
[6018750]mem_ctrl.cc processRespondEvent:ReadSharedReq [a88c0:a88ff] IF
[6018750]mem_ctrl.cc accessAndRespond:ReadSharedReq [a88c0:a88ff] IF
[6027750]mem_ctrl.cc processRespondEvent:ReadSharedReq [100000a89c0:100000a89ff] IF
[6027750]mem_ctrl.cc accessAndRespond:ReadSharedReq [100000a89c0:100000a89ff] IF
[6098000]mem_ctrl.cc recvTimingReq:ReadSharedReq [a8900:a893f] IF
[6098000]mem_ctrl.cc addToReadQueue:ReadSharedReq [a8900:a893f] IF
[6098000]mem_ctrl.cc doBurstAccess:ReadSharedReq [a8900:a893f] IF
[6107000]mem_ctrl.cc recvTimingReq:ReadSharedReq [100000a8a00:100000a8a3f] IF
[6107000]mem_ctrl.cc addToReadQueue:ReadSharedReq [100000a8a00:100000a8a3f] IF
[6107000]mem_ctrl.cc doBurstAccess:ReadSharedReq [100000a8a00:100000a8a3f] IF
[6116750]mem_ctrl.cc processRespondEvent:ReadSharedReq [a8900:a893f] IF
[6116750]mem_ctrl.cc accessAndRespond:ReadSharedReq [a8900:a893f] IF
[6125750]mem_ctrl.cc processRespondEvent:ReadSharedReq [100000a8a00:100000a8a3f] IF
[6125750]mem_ctrl.cc accessAndRespond:ReadSharedReq [100000a8a00:100000a8a3f] IF
[6193000]mem_ctrl.cc recvTimingReq:ReadSharedReq [1e1880:1e18bf]
[6193000]mem_ctrl.cc addToReadQueue:ReadSharedReq [1e1880:1e18bf]
[6193000]mem_ctrl.cc doBurstAccess:ReadSharedReq [1e1880:1e18bf]
[6202000]mem_ctrl.cc recvTimingReq:ReadSharedReq [100001e1880:100001e18bf]
[6202000]mem_ctrl.cc addToReadQueue:ReadSharedReq [100001e1880:100001e18bf]
[6202000]mem_ctrl.cc doBurstAccess:ReadSharedReq [100001e1880:100001e18bf]
[6211750]mem_ctrl.cc processRespondEvent:ReadSharedReq [1e1880:1e18bf]
[6211750]mem_ctrl.cc accessAndRespond:ReadSharedReq [1e1880:1e18bf]
[6220750]mem_ctrl.cc processRespondEvent:ReadSharedReq [100001e1880:100001e18bf]
[6220750]mem_ctrl.cc accessAndRespond:ReadSharedReq [100001e1880:100001e18bf]
[6267000]mem_ctrl.cc recvTimingReq:ReadSharedReq [a8940:a897f] IF
[6267000]mem_ctrl.cc addToReadQueue:ReadSharedReq [a8940:a897f] IF
[6267000]mem_ctrl.cc doBurstAccess:ReadSharedReq [a8940:a897f] IF
[6276000]mem_ctrl.cc recvTimingReq:ReadSharedReq [100000a8a40:100000a8a7f] IF
[6276000]mem_ctrl.cc addToReadQueue:ReadSharedReq [100000a8a40:100000a8a7f] IF
[6276000]mem_ctrl.cc doBurstAccess:ReadSharedReq [100000a8a40:100000a8a7f] IF
[6294750]mem_ctrl.cc processRespondEvent:ReadSharedReq [100000a8a40:100000a8a7f] IF
[6294750]mem_ctrl.cc accessAndRespond:ReadSharedReq [100000a8a40:100000a8a7f] IF
[6299500]mem_ctrl.cc processRespondEvent:ReadSharedReq [a8940:a897f] IF
[6299500]mem_ctrl.cc accessAndRespond:ReadSharedReq [a8940:a897f] IF
[6368000]mem_ctrl.cc recvTimingReq:ReadSharedReq [100000a8ac0:100000a8aff] IF
[6368000]mem_ctrl.cc addToReadQueue:ReadSharedReq [100000a8ac0:100000a8aff] IF
[6368000]mem_ctrl.cc doBurstAccess:ReadSharedReq [100000a8ac0:100000a8aff] IF
[6373000]mem_ctrl.cc recvTimingReq:ReadSharedReq [a89c0:a89ff] IF
[6373000]mem_ctrl.cc addToReadQueue:ReadSharedReq [a89c0:a89ff] IF
[6373000]mem_ctrl.cc doBurstAccess:ReadSharedReq [a89c0:a89ff] IF
[6386750]mem_ctrl.cc processRespondEvent:ReadSharedReq [100000a8ac0:100000a8aff] IF
[6386750]mem_ctrl.cc accessAndRespond:ReadSharedReq [100000a8ac0:100000a8aff] IF
[6391750]mem_ctrl.cc processRespondEvent:ReadSharedReq [a89c0:a89ff] IF
[6391750]mem_ctrl.cc accessAndRespond:ReadSharedReq [a89c0:a89ff] IF
[6450000]mem_ctrl.cc recvTimingReq:ReadSharedReq [100000a8b00:100000a8b3f] IF
[6450000]mem_ctrl.cc addToReadQueue:ReadSharedReq [100000a8b00:100000a8b3f] IF
[6450000]mem_ctrl.cc doBurstAccess:ReadSharedReq [100000a8b00:100000a8b3f] IF
[6455000]mem_ctrl.cc recvTimingReq:ReadSharedReq [a8a00:a8a3f] IF
[6455000]mem_ctrl.cc addToReadQueue:ReadSharedReq [a8a00:a8a3f] IF
[6455000]mem_ctrl.cc doBurstAccess:ReadSharedReq [a8a00:a8a3f] IF
[6468750]mem_ctrl.cc processRespondEvent:ReadSharedReq [100000a8b00:100000a8b3f] IF
[6468750]mem_ctrl.cc accessAndRespond:ReadSharedReq [100000a8b00:100000a8b3f] IF
[6473750]mem_ctrl.cc processRespondEvent:ReadSharedReq [a8a00:a8a3f] IF
[6473750]mem_ctrl.cc accessAndRespond:ReadSharedReq [a8a00:a8a3f] IF
[6527000]mem_ctrl.cc recvTimingReq:ReadSharedReq [100000a8bc0:100000a8bff] IF
[6527000]mem_ctrl.cc addToReadQueue:ReadSharedReq [100000a8bc0:100000a8bff] IF
[6527000]mem_ctrl.cc doBurstAccess:ReadSharedReq [100000a8bc0:100000a8bff] IF
[6532000]mem_ctrl.cc recvTimingReq:ReadSharedReq [a8ac0:a8aff] IF
[6532000]mem_ctrl.cc addToReadQueue:ReadSharedReq [a8ac0:a8aff] IF
[6532000]mem_ctrl.cc doBurstAccess:ReadSharedReq [a8ac0:a8aff] IF
[6545750]mem_ctrl.cc processRespondEvent:ReadSharedReq [100000a8bc0:100000a8bff] IF
[6545750]mem_ctrl.cc accessAndRespond:ReadSharedReq [100000a8bc0:100000a8bff] IF
[6550750]mem_ctrl.cc processRespondEvent:ReadSharedReq [a8ac0:a8aff] IF
[6550750]mem_ctrl.cc accessAndRespond:ReadSharedReq [a8ac0:a8aff] IF
[6606000]mem_ctrl.cc recvTimingReq:ReadSharedReq [100000a8c00:100000a8c3f] IF
[6606000]mem_ctrl.cc addToReadQueue:ReadSharedReq [100000a8c00:100000a8c3f] IF
[6606000]mem_ctrl.cc doBurstAccess:ReadSharedReq [100000a8c00:100000a8c3f] IF
[6611000]mem_ctrl.cc recvTimingReq:ReadSharedReq [a8b00:a8b3f] IF
[6611000]mem_ctrl.cc addToReadQueue:ReadSharedReq [a8b00:a8b3f] IF
[6611000]mem_ctrl.cc doBurstAccess:ReadSharedReq [a8b00:a8b3f] IF
[6624750]mem_ctrl.cc processRespondEvent:ReadSharedReq [100000a8c00:100000a8c3f] IF
[6624750]mem_ctrl.cc accessAndRespond:ReadSharedReq [100000a8c00:100000a8c3f] IF
[6629750]mem_ctrl.cc processRespondEvent:ReadSharedReq [a8b00:a8b3f] IF
[6629750]mem_ctrl.cc accessAndRespond:ReadSharedReq [a8b00:a8b3f] IF
[6678000]mem_ctrl.cc recvTimingReq:ReadSharedReq [100000a8d00:100000a8d3f] IF
[6678000]mem_ctrl.cc addToReadQueue:ReadSharedReq [100000a8d00:100000a8d3f] IF
[6678000]mem_ctrl.cc doBurstAccess:ReadSharedReq [100000a8d00:100000a8d3f] IF
[6683000]mem_ctrl.cc recvTimingReq:ReadSharedReq [a8c00:a8c3f] IF
[6683000]mem_ctrl.cc addToReadQueue:ReadSharedReq [a8c00:a8c3f] IF
[6683000]mem_ctrl.cc doBurstAccess:ReadSharedReq [a8c00:a8c3f] IF
[6696750]mem_ctrl.cc processRespondEvent:ReadSharedReq [100000a8d00:100000a8d3f] IF
[6696750]mem_ctrl.cc accessAndRespond:ReadSharedReq [100000a8d00:100000a8d3f] IF
[6701750]mem_ctrl.cc processRespondEvent:ReadSharedReq [a8c00:a8c3f] IF
[6701750]mem_ctrl.cc accessAndRespond:ReadSharedReq [a8c00:a8c3f] IF
[6786000]mem_ctrl.cc recvTimingReq:ReadSharedReq [100000a95c0:100000a95ff] IF
[6786000]mem_ctrl.cc addToReadQueue:ReadSharedReq [100000a95c0:100000a95ff] IF
[6786000]mem_ctrl.cc doBurstAccess:ReadSharedReq [100000a95c0:100000a95ff] IF
[6791000]mem_ctrl.cc recvTimingReq:ReadSharedReq [a94c0:a94ff] IF
[6791000]mem_ctrl.cc addToReadQueue:ReadSharedReq [a94c0:a94ff] IF
[6791000]mem_ctrl.cc doBurstAccess:ReadSharedReq [a94c0:a94ff] IF
[6804750]mem_ctrl.cc processRespondEvent:ReadSharedReq [100000a95c0:100000a95ff] IF
[6804750]mem_ctrl.cc accessAndRespond:ReadSharedReq [100000a95c0:100000a95ff] IF
[6809750]mem_ctrl.cc processRespondEvent:ReadSharedReq [a94c0:a94ff] IF
[6809750]mem_ctrl.cc accessAndRespond:ReadSharedReq [a94c0:a94ff] IF
[6865000]mem_ctrl.cc recvTimingReq:ReadSharedReq [100000a8ec0:100000a8eff] IF
[6865000]mem_ctrl.cc addToReadQueue:ReadSharedReq [100000a8ec0:100000a8eff] IF
[6865000]mem_ctrl.cc doBurstAccess:ReadSharedReq [100000a8ec0:100000a8eff] IF
[6870000]mem_ctrl.cc recvTimingReq:ReadSharedReq [a8dc0:a8dff] IF
[6870000]mem_ctrl.cc addToReadQueue:ReadSharedReq [a8dc0:a8dff] IF
[6870000]mem_ctrl.cc doBurstAccess:ReadSharedReq [a8dc0:a8dff] IF
[6883750]mem_ctrl.cc processRespondEvent:ReadSharedReq [100000a8ec0:100000a8eff] IF
[6883750]mem_ctrl.cc accessAndRespond:ReadSharedReq [100000a8ec0:100000a8eff] IF
[6888750]mem_ctrl.cc processRespondEvent:ReadSharedReq [a8dc0:a8dff] IF
[6888750]mem_ctrl.cc accessAndRespond:ReadSharedReq [a8dc0:a8dff] IF
[6956000]mem_ctrl.cc recvTimingReq:ReadSharedReq [100000a8f00:100000a8f3f] IF
[6956000]mem_ctrl.cc addToReadQueue:ReadSharedReq [100000a8f00:100000a8f3f] IF
[6956000]mem_ctrl.cc doBurstAccess:ReadSharedReq [100000a8f00:100000a8f3f] IF
[6961000]mem_ctrl.cc recvTimingReq:ReadSharedReq [a8e00:a8e3f] IF
[6961000]mem_ctrl.cc addToReadQueue:ReadSharedReq [a8e00:a8e3f] IF
[6961000]mem_ctrl.cc doBurstAccess:ReadSharedReq [a8e00:a8e3f] IF
[6974750]mem_ctrl.cc processRespondEvent:ReadSharedReq [100000a8f00:100000a8f3f] IF
[6974750]mem_ctrl.cc accessAndRespond:ReadSharedReq [100000a8f00:100000a8f3f] IF
[6979750]mem_ctrl.cc processRespondEvent:ReadSharedReq [a8e00:a8e3f] IF
[6979750]mem_ctrl.cc accessAndRespond:ReadSharedReq [a8e00:a8e3f] IF
[7048000]mem_ctrl.cc recvTimingReq:ReadSharedReq [100000a8f40:100000a8f7f] IF
[7048000]mem_ctrl.cc addToReadQueue:ReadSharedReq [100000a8f40:100000a8f7f] IF
[7048000]mem_ctrl.cc doBurstAccess:ReadSharedReq [100000a8f40:100000a8f7f] IF
[7053000]mem_ctrl.cc recvTimingReq:ReadSharedReq [a8e40:a8e7f] IF
[7053000]mem_ctrl.cc addToReadQueue:ReadSharedReq [a8e40:a8e7f] IF
[7053000]mem_ctrl.cc doBurstAccess:ReadSharedReq [a8e40:a8e7f] IF
[7066750]mem_ctrl.cc processRespondEvent:ReadSharedReq [100000a8f40:100000a8f7f] IF
[7066750]mem_ctrl.cc accessAndRespond:ReadSharedReq [100000a8f40:100000a8f7f] IF
[7071750]mem_ctrl.cc processRespondEvent:ReadSharedReq [a8e40:a8e7f] IF
[7071750]mem_ctrl.cc accessAndRespond:ReadSharedReq [a8e40:a8e7f] IF
[7123000]mem_ctrl.cc recvTimingReq:ReadSharedReq [100000a9c40:100000a9c7f] IF
[7123000]mem_ctrl.cc addToReadQueue:ReadSharedReq [100000a9c40:100000a9c7f] IF
[7123000]mem_ctrl.cc doBurstAccess:ReadSharedReq [100000a9c40:100000a9c7f] IF
[7128000]mem_ctrl.cc recvTimingReq:ReadSharedReq [a9b40:a9b7f] IF
[7128000]mem_ctrl.cc addToReadQueue:ReadSharedReq [a9b40:a9b7f] IF
[7128000]mem_ctrl.cc doBurstAccess:ReadSharedReq [a9b40:a9b7f] IF
[7141750]mem_ctrl.cc processRespondEvent:ReadSharedReq [100000a9c40:100000a9c7f] IF
[7141750]mem_ctrl.cc accessAndRespond:ReadSharedReq [100000a9c40:100000a9c7f] IF
[7146750]mem_ctrl.cc processRespondEvent:ReadSharedReq [a9b40:a9b7f] IF
[7146750]mem_ctrl.cc accessAndRespond:ReadSharedReq [a9b40:a9b7f] IF
[7198000]mem_ctrl.cc recvTimingReq:ReadSharedReq [100000a7d00:100000a7d3f] IF
[7198000]mem_ctrl.cc addToReadQueue:ReadSharedReq [100000a7d00:100000a7d3f] IF
[7198000]mem_ctrl.cc doBurstAccess:ReadSharedReq [100000a7d00:100000a7d3f] IF
[7203000]mem_ctrl.cc recvTimingReq:ReadSharedReq [a7c00:a7c3f] IF
[7203000]mem_ctrl.cc addToReadQueue:ReadSharedReq [a7c00:a7c3f] IF
[7203000]mem_ctrl.cc doBurstAccess:ReadSharedReq [a7c00:a7c3f] IF
[7216750]mem_ctrl.cc processRespondEvent:ReadSharedReq [100000a7d00:100000a7d3f] IF
[7216750]mem_ctrl.cc accessAndRespond:ReadSharedReq [100000a7d00:100000a7d3f] IF
[7221750]mem_ctrl.cc processRespondEvent:ReadSharedReq [a7c00:a7c3f] IF
[7221750]mem_ctrl.cc accessAndRespond:ReadSharedReq [a7c00:a7c3f] IF
[7292000]mem_ctrl.cc recvTimingReq:ReadSharedReq [100000a7e80:100000a7ebf] IF
[7292000]mem_ctrl.cc addToReadQueue:ReadSharedReq [100000a7e80:100000a7ebf] IF
[7292000]mem_ctrl.cc doBurstAccess:ReadSharedReq [100000a7e80:100000a7ebf] IF
[7297000]mem_ctrl.cc recvTimingReq:ReadSharedReq [a7d80:a7dbf] IF
[7297000]mem_ctrl.cc addToReadQueue:ReadSharedReq [a7d80:a7dbf] IF
[7297000]mem_ctrl.cc doBurstAccess:ReadSharedReq [a7d80:a7dbf] IF
[7310750]mem_ctrl.cc processRespondEvent:ReadSharedReq [100000a7e80:100000a7ebf] IF
[7310750]mem_ctrl.cc accessAndRespond:ReadSharedReq [100000a7e80:100000a7ebf] IF
[7315750]mem_ctrl.cc processRespondEvent:ReadSharedReq [a7d80:a7dbf] IF
[7315750]mem_ctrl.cc accessAndRespond:ReadSharedReq [a7d80:a7dbf] IF
[7370000]mem_ctrl.cc recvTimingReq:ReadSharedReq [100000a7d40:100000a7d7f] IF
[7370000]mem_ctrl.cc addToReadQueue:ReadSharedReq [100000a7d40:100000a7d7f] IF
[7370000]mem_ctrl.cc doBurstAccess:ReadSharedReq [100000a7d40:100000a7d7f] IF
[7375000]mem_ctrl.cc recvTimingReq:ReadSharedReq [a7c40:a7c7f] IF
[7375000]mem_ctrl.cc addToReadQueue:ReadSharedReq [a7c40:a7c7f] IF
[7375000]mem_ctrl.cc doBurstAccess:ReadSharedReq [a7c40:a7c7f] IF
[7388750]mem_ctrl.cc processRespondEvent:ReadSharedReq [100000a7d40:100000a7d7f] IF
[7388750]mem_ctrl.cc accessAndRespond:ReadSharedReq [100000a7d40:100000a7d7f] IF
[7393750]mem_ctrl.cc processRespondEvent:ReadSharedReq [a7c40:a7c7f] IF
[7393750]mem_ctrl.cc accessAndRespond:ReadSharedReq [a7c40:a7c7f] IF
[7456000]mem_ctrl.cc recvTimingReq:ReadExReq [1e2d00:1e2d3f]
[7456000]mem_ctrl.cc addToReadQueue:ReadExReq [1e2d00:1e2d3f]
[7456000]mem_ctrl.cc doBurstAccess:ReadExReq [1e2d00:1e2d3f]
[7474750]mem_ctrl.cc processRespondEvent:ReadExReq [1e2d00:1e2d3f]
[7474750]mem_ctrl.cc accessAndRespond:ReadExReq [1e2d00:1e2d3f]
[7481000]mem_ctrl.cc recvTimingReq:ReadSharedReq [1000017af40:1000017af7f]
[7481000]mem_ctrl.cc addToReadQueue:ReadSharedReq [1000017af40:1000017af7f]
[7481000]mem_ctrl.cc doBurstAccess:ReadSharedReq [1000017af40:1000017af7f]
[7513500]mem_ctrl.cc processRespondEvent:ReadSharedReq [1000017af40:1000017af7f]
[7513500]mem_ctrl.cc accessAndRespond:ReadSharedReq [1000017af40:1000017af7f]
[7557000]mem_ctrl.cc recvTimingReq:ReadSharedReq [17af40:17af7f]
[7557000]mem_ctrl.cc addToReadQueue:ReadSharedReq [17af40:17af7f]
[7557000]mem_ctrl.cc doBurstAccess:ReadSharedReq [17af40:17af7f]
[7569000]mem_ctrl.cc recvTimingReq:ReadSharedReq [100000a7d80:100000a7dbf] IF
[7569000]mem_ctrl.cc addToReadQueue:ReadSharedReq [100000a7d80:100000a7dbf] IF
[7569000]mem_ctrl.cc doBurstAccess:ReadSharedReq [100000a7d80:100000a7dbf] IF
[7587750]mem_ctrl.cc processRespondEvent:ReadSharedReq [100000a7d80:100000a7dbf] IF
[7587750]mem_ctrl.cc accessAndRespond:ReadSharedReq [100000a7d80:100000a7dbf] IF
[7589500]mem_ctrl.cc processRespondEvent:ReadSharedReq [17af40:17af7f]
[7589500]mem_ctrl.cc accessAndRespond:ReadSharedReq [17af40:17af7f]
[7648000]mem_ctrl.cc recvTimingReq:ReadSharedReq [a7c80:a7cbf] IF
[7648000]mem_ctrl.cc addToReadQueue:ReadSharedReq [a7c80:a7cbf] IF
[7648000]mem_ctrl.cc doBurstAccess:ReadSharedReq [a7c80:a7cbf] IF
[7666750]mem_ctrl.cc processRespondEvent:ReadSharedReq [a7c80:a7cbf] IF
[7666750]mem_ctrl.cc accessAndRespond:ReadSharedReq [a7c80:a7cbf] IF
[7691000]mem_ctrl.cc recvTimingReq:ReadSharedReq [100000a7dc0:100000a7dff] IF
[7691000]mem_ctrl.cc addToReadQueue:ReadSharedReq [100000a7dc0:100000a7dff] IF
[7691000]mem_ctrl.cc doBurstAccess:ReadSharedReq [100000a7dc0:100000a7dff] IF
[7709750]mem_ctrl.cc processRespondEvent:ReadSharedReq [100000a7dc0:100000a7dff] IF
[7709750]mem_ctrl.cc accessAndRespond:ReadSharedReq [100000a7dc0:100000a7dff] IF
[7770000]mem_ctrl.cc recvTimingReq:ReadSharedReq [a7cc0:a7cff] IF
[7770000]mem_ctrl.cc addToReadQueue:ReadSharedReq [a7cc0:a7cff] IF
[7770000]mem_ctrl.cc doBurstAccess:ReadSharedReq [a7cc0:a7cff] IF
[7773000]mem_ctrl.cc recvTimingReq:ReadSharedReq [100000a9c80:100000a9cbf] IF
[7773000]mem_ctrl.cc addToReadQueue:ReadSharedReq [100000a9c80:100000a9cbf] IF
[7773000]mem_ctrl.cc doBurstAccess:ReadSharedReq [100000a9c80:100000a9cbf] IF
[7788750]mem_ctrl.cc processRespondEvent:ReadSharedReq [a7cc0:a7cff] IF
[7788750]mem_ctrl.cc accessAndRespond:ReadSharedReq [a7cc0:a7cff] IF
[7791750]mem_ctrl.cc processRespondEvent:ReadSharedReq [100000a9c80:100000a9cbf] IF
[7791750]mem_ctrl.cc accessAndRespond:ReadSharedReq [100000a9c80:100000a9cbf] IF
[7852000]mem_ctrl.cc recvTimingReq:ReadSharedReq [a9b80:a9bbf] IF
[7852000]mem_ctrl.cc addToReadQueue:ReadSharedReq [a9b80:a9bbf] IF
[7894000]mem_ctrl.cc recvTimingReq:ReadExReq [100001e2d00:100001e2d3f]
[7894000]mem_ctrl.cc addToReadQueue:ReadExReq [100001e2d00:100001e2d3f]
[8060000]mem_ctrl.cc doBurstAccess:ReadExReq [100001e2d00:100001e2d3f]
[8060000]mem_ctrl.cc doBurstAccess:ReadSharedReq [a9b80:a9bbf] IF
[8092500]mem_ctrl.cc processRespondEvent:ReadSharedReq [a9b80:a9bbf] IF
[8092500]mem_ctrl.cc accessAndRespond:ReadSharedReq [a9b80:a9bbf] IF
[8092500]mem_ctrl.cc processRespondEvent:ReadExReq [100001e2d00:100001e2d3f]
[8092500]mem_ctrl.cc accessAndRespond:ReadExReq [100001e2d00:100001e2d3f]
[8242000]mem_ctrl.cc recvTimingReq:ReadSharedReq [100000a9cc0:100000a9cff] IF
[8242000]mem_ctrl.cc addToReadQueue:ReadSharedReq [100000a9cc0:100000a9cff] IF
[8242000]mem_ctrl.cc doBurstAccess:ReadSharedReq [100000a9cc0:100000a9cff] IF
[8274500]mem_ctrl.cc processRespondEvent:ReadSharedReq [100000a9cc0:100000a9cff] IF
[8274500]mem_ctrl.cc accessAndRespond:ReadSharedReq [100000a9cc0:100000a9cff] IF
[8295000]mem_ctrl.cc recvTimingReq:ReadSharedReq [a9bc0:a9bff] IF
[8295000]mem_ctrl.cc addToReadQueue:ReadSharedReq [a9bc0:a9bff] IF
[8295000]mem_ctrl.cc doBurstAccess:ReadSharedReq [a9bc0:a9bff] IF
[8313750]mem_ctrl.cc processRespondEvent:ReadSharedReq [a9bc0:a9bff] IF
[8313750]mem_ctrl.cc accessAndRespond:ReadSharedReq [a9bc0:a9bff] IF
[8411000]mem_ctrl.cc recvTimingReq:ReadSharedReq [1000017af80:1000017afbf]
[8411000]mem_ctrl.cc addToReadQueue:ReadSharedReq [1000017af80:1000017afbf]
[8411000]mem_ctrl.cc doBurstAccess:ReadSharedReq [1000017af80:1000017afbf]
[8443500]mem_ctrl.cc processRespondEvent:ReadSharedReq [1000017af80:1000017afbf]
[8443500]mem_ctrl.cc accessAndRespond:ReadSharedReq [1000017af80:1000017afbf]
[8450000]mem_ctrl.cc recvTimingReq:ReadSharedReq [17af80:17afbf]
[8450000]mem_ctrl.cc addToReadQueue:ReadSharedReq [17af80:17afbf]
[8450000]mem_ctrl.cc doBurstAccess:ReadSharedReq [17af80:17afbf]
[8482500]mem_ctrl.cc processRespondEvent:ReadSharedReq [17af80:17afbf]
[8482500]mem_ctrl.cc accessAndRespond:ReadSharedReq [17af80:17afbf]
[8500000]mem_ctrl.cc recvTimingReq:ReadSharedReq [100000a7e00:100000a7e3f] IF
[8500000]mem_ctrl.cc addToReadQueue:ReadSharedReq [100000a7e00:100000a7e3f] IF
[8500000]mem_ctrl.cc doBurstAccess:ReadSharedReq [100000a7e00:100000a7e3f] IF
[8532500]mem_ctrl.cc processRespondEvent:ReadSharedReq [100000a7e00:100000a7e3f] IF
[8532500]mem_ctrl.cc accessAndRespond:ReadSharedReq [100000a7e00:100000a7e3f] IF
[8539000]mem_ctrl.cc recvTimingReq:ReadSharedReq [a7d00:a7d3f] IF
[8539000]mem_ctrl.cc addToReadQueue:ReadSharedReq [a7d00:a7d3f] IF
[8539000]mem_ctrl.cc doBurstAccess:ReadSharedReq [a7d00:a7d3f] IF
[8571500]mem_ctrl.cc processRespondEvent:ReadSharedReq [a7d00:a7d3f] IF
[8571500]mem_ctrl.cc accessAndRespond:ReadSharedReq [a7d00:a7d3f] IF
[8681000]mem_ctrl.cc recvTimingReq:ReadSharedReq [1000017afc0:1000017afff]
[8681000]mem_ctrl.cc addToReadQueue:ReadSharedReq [1000017afc0:1000017afff]
[8681000]mem_ctrl.cc doBurstAccess:ReadSharedReq [1000017afc0:1000017afff]
[8699750]mem_ctrl.cc processRespondEvent:ReadSharedReq [1000017afc0:1000017afff]
[8699750]mem_ctrl.cc accessAndRespond:ReadSharedReq [1000017afc0:1000017afff]
[8720000]mem_ctrl.cc recvTimingReq:ReadSharedReq [17afc0:17afff]
[8720000]mem_ctrl.cc addToReadQueue:ReadSharedReq [17afc0:17afff]
[8720000]mem_ctrl.cc doBurstAccess:ReadSharedReq [17afc0:17afff]
[8738750]mem_ctrl.cc processRespondEvent:ReadSharedReq [17afc0:17afff]
[8738750]mem_ctrl.cc accessAndRespond:ReadSharedReq [17afc0:17afff]
[8766000]mem_ctrl.cc recvTimingReq:ReadSharedReq [100000a9d00:100000a9d3f] IF
[8766000]mem_ctrl.cc addToReadQueue:ReadSharedReq [100000a9d00:100000a9d3f] IF
[8766000]mem_ctrl.cc doBurstAccess:ReadSharedReq [100000a9d00:100000a9d3f] IF
[8784750]mem_ctrl.cc processRespondEvent:ReadSharedReq [100000a9d00:100000a9d3f] IF
[8784750]mem_ctrl.cc accessAndRespond:ReadSharedReq [100000a9d00:100000a9d3f] IF
[8805000]mem_ctrl.cc recvTimingReq:ReadSharedReq [a9c00:a9c3f] IF
[8805000]mem_ctrl.cc addToReadQueue:ReadSharedReq [a9c00:a9c3f] IF
[8805000]mem_ctrl.cc doBurstAccess:ReadSharedReq [a9c00:a9c3f] IF
[8823750]mem_ctrl.cc processRespondEvent:ReadSharedReq [a9c00:a9c3f] IF
[8823750]mem_ctrl.cc accessAndRespond:ReadSharedReq [a9c00:a9c3f] IF
[8884000]mem_ctrl.cc recvTimingReq:ReadSharedReq [100000a9f80:100000a9fbf] IF
[8884000]mem_ctrl.cc addToReadQueue:ReadSharedReq [100000a9f80:100000a9fbf] IF
[8884000]mem_ctrl.cc doBurstAccess:ReadSharedReq [100000a9f80:100000a9fbf] IF
[8902750]mem_ctrl.cc processRespondEvent:ReadSharedReq [100000a9f80:100000a9fbf] IF
[8902750]mem_ctrl.cc accessAndRespond:ReadSharedReq [100000a9f80:100000a9fbf] IF
[8923000]mem_ctrl.cc recvTimingReq:ReadSharedReq [a9e80:a9ebf] IF
[8923000]mem_ctrl.cc addToReadQueue:ReadSharedReq [a9e80:a9ebf] IF
[8923000]mem_ctrl.cc doBurstAccess:ReadSharedReq [a9e80:a9ebf] IF
[8941750]mem_ctrl.cc processRespondEvent:ReadSharedReq [a9e80:a9ebf] IF
[8941750]mem_ctrl.cc accessAndRespond:ReadSharedReq [a9e80:a9ebf] IF
[8963000]mem_ctrl.cc recvTimingReq:ReadSharedReq [100000a8fc0:100000a8fff] IF
[8963000]mem_ctrl.cc addToReadQueue:ReadSharedReq [100000a8fc0:100000a8fff] IF
[8963000]mem_ctrl.cc doBurstAccess:ReadSharedReq [100000a8fc0:100000a8fff] IF
[8981750]mem_ctrl.cc processRespondEvent:ReadSharedReq [100000a8fc0:100000a8fff] IF
[8981750]mem_ctrl.cc accessAndRespond:ReadSharedReq [100000a8fc0:100000a8fff] IF
[9002000]mem_ctrl.cc recvTimingReq:ReadSharedReq [a8ec0:a8eff] IF
[9002000]mem_ctrl.cc addToReadQueue:ReadSharedReq [a8ec0:a8eff] IF
[9002000]mem_ctrl.cc doBurstAccess:ReadSharedReq [a8ec0:a8eff] IF
[9020750]mem_ctrl.cc processRespondEvent:ReadSharedReq [a8ec0:a8eff] IF
[9020750]mem_ctrl.cc accessAndRespond:ReadSharedReq [a8ec0:a8eff] IF
[9045000]mem_ctrl.cc recvTimingReq:ReadExReq [100001e18c0:100001e18ff]
[9045000]mem_ctrl.cc addToReadQueue:ReadExReq [100001e18c0:100001e18ff]
[9045000]mem_ctrl.cc doBurstAccess:ReadExReq [100001e18c0:100001e18ff]
[9077500]mem_ctrl.cc processRespondEvent:ReadExReq [100001e18c0:100001e18ff]
[9077500]mem_ctrl.cc accessAndRespond:ReadExReq [100001e18c0:100001e18ff]
[9084000]mem_ctrl.cc recvTimingReq:ReadExReq [1e18c0:1e18ff]
[9084000]mem_ctrl.cc addToReadQueue:ReadExReq [1e18c0:1e18ff]
[9084000]mem_ctrl.cc doBurstAccess:ReadExReq [1e18c0:1e18ff]
[9116500]mem_ctrl.cc processRespondEvent:ReadExReq [1e18c0:1e18ff]
[9116500]mem_ctrl.cc accessAndRespond:ReadExReq [1e18c0:1e18ff]
[9146000]mem_ctrl.cc recvTimingReq:ReadSharedReq [100000a9000:100000a903f] IF
[9146000]mem_ctrl.cc addToReadQueue:ReadSharedReq [100000a9000:100000a903f] IF
[9146000]mem_ctrl.cc doBurstAccess:ReadSharedReq [100000a9000:100000a903f] IF
[9164750]mem_ctrl.cc processRespondEvent:ReadSharedReq [100000a9000:100000a903f] IF
[9164750]mem_ctrl.cc accessAndRespond:ReadSharedReq [100000a9000:100000a903f] IF
[9185000]mem_ctrl.cc recvTimingReq:ReadSharedReq [a8f00:a8f3f] IF
[9185000]mem_ctrl.cc addToReadQueue:ReadSharedReq [a8f00:a8f3f] IF
[9185000]mem_ctrl.cc doBurstAccess:ReadSharedReq [a8f00:a8f3f] IF
[9203750]mem_ctrl.cc processRespondEvent:ReadSharedReq [a8f00:a8f3f] IF
[9203750]mem_ctrl.cc accessAndRespond:ReadSharedReq [a8f00:a8f3f] IF
[9230000]mem_ctrl.cc recvTimingReq:ReadExReq [100001e1900:100001e193f]
[9230000]mem_ctrl.cc addToReadQueue:ReadExReq [100001e1900:100001e193f]
[9230000]mem_ctrl.cc doBurstAccess:ReadExReq [100001e1900:100001e193f]
[9248750]mem_ctrl.cc processRespondEvent:ReadExReq [100001e1900:100001e193f]
[9248750]mem_ctrl.cc accessAndRespond:ReadExReq [100001e1900:100001e193f]
[9269000]mem_ctrl.cc recvTimingReq:ReadExReq [1e1900:1e193f]
[9269000]mem_ctrl.cc addToReadQueue:ReadExReq [1e1900:1e193f]
[9269000]mem_ctrl.cc doBurstAccess:ReadExReq [1e1900:1e193f]
[9287750]mem_ctrl.cc processRespondEvent:ReadExReq [1e1900:1e193f]
[9287750]mem_ctrl.cc accessAndRespond:ReadExReq [1e1900:1e193f]
[9320000]mem_ctrl.cc recvTimingReq:ReadSharedReq [100000a9040:100000a907f] IF
[9320000]mem_ctrl.cc addToReadQueue:ReadSharedReq [100000a9040:100000a907f] IF
[9320000]mem_ctrl.cc doBurstAccess:ReadSharedReq [100000a9040:100000a907f] IF
[9338750]mem_ctrl.cc processRespondEvent:ReadSharedReq [100000a9040:100000a907f] IF
[9338750]mem_ctrl.cc accessAndRespond:ReadSharedReq [100000a9040:100000a907f] IF
[9359000]mem_ctrl.cc recvTimingReq:ReadSharedReq [a8f40:a8f7f] IF
[9359000]mem_ctrl.cc addToReadQueue:ReadSharedReq [a8f40:a8f7f] IF
[9359000]mem_ctrl.cc doBurstAccess:ReadSharedReq [a8f40:a8f7f] IF
[9377750]mem_ctrl.cc processRespondEvent:ReadSharedReq [a8f40:a8f7f] IF
[9377750]mem_ctrl.cc accessAndRespond:ReadSharedReq [a8f40:a8f7f] IF
[9413000]mem_ctrl.cc recvTimingReq:ReadSharedReq [100000a9080:100000a90bf] IF
[9413000]mem_ctrl.cc addToReadQueue:ReadSharedReq [100000a9080:100000a90bf] IF
[9413000]mem_ctrl.cc doBurstAccess:ReadSharedReq [100000a9080:100000a90bf] IF
[9431750]mem_ctrl.cc processRespondEvent:ReadSharedReq [100000a9080:100000a90bf] IF
[9431750]mem_ctrl.cc accessAndRespond:ReadSharedReq [100000a9080:100000a90bf] IF
[9452000]mem_ctrl.cc recvTimingReq:ReadSharedReq [a8f80:a8fbf] IF
[9452000]mem_ctrl.cc addToReadQueue:ReadSharedReq [a8f80:a8fbf] IF
[9452000]mem_ctrl.cc doBurstAccess:ReadSharedReq [a8f80:a8fbf] IF
[9470750]mem_ctrl.cc processRespondEvent:ReadSharedReq [a8f80:a8fbf] IF
[9470750]mem_ctrl.cc accessAndRespond:ReadSharedReq [a8f80:a8fbf] IF
[9506000]mem_ctrl.cc recvTimingReq:ReadSharedReq [1000012ffc0:1000012ffff] IF
[9506000]mem_ctrl.cc addToReadQueue:ReadSharedReq [1000012ffc0:1000012ffff] IF
[9506000]mem_ctrl.cc doBurstAccess:ReadSharedReq [1000012ffc0:1000012ffff] IF
[9538500]mem_ctrl.cc processRespondEvent:ReadSharedReq [1000012ffc0:1000012ffff] IF
[9538500]mem_ctrl.cc accessAndRespond:ReadSharedReq [1000012ffc0:1000012ffff] IF
[9545000]mem_ctrl.cc recvTimingReq:ReadSharedReq [12fec0:12feff] IF
[9545000]mem_ctrl.cc addToReadQueue:ReadSharedReq [12fec0:12feff] IF
[9545000]mem_ctrl.cc doBurstAccess:ReadSharedReq [12fec0:12feff] IF
[9577500]mem_ctrl.cc processRespondEvent:ReadSharedReq [12fec0:12feff] IF
[9577500]mem_ctrl.cc accessAndRespond:ReadSharedReq [12fec0:12feff] IF
[9596000]mem_ctrl.cc recvTimingReq:ReadSharedReq [10000130000:1000013003f] IF
[9596000]mem_ctrl.cc addToReadQueue:ReadSharedReq [10000130000:1000013003f] IF
[9596000]mem_ctrl.cc doBurstAccess:ReadSharedReq [10000130000:1000013003f] IF
[9628500]mem_ctrl.cc processRespondEvent:ReadSharedReq [10000130000:1000013003f] IF
[9628500]mem_ctrl.cc accessAndRespond:ReadSharedReq [10000130000:1000013003f] IF
[9635000]mem_ctrl.cc recvTimingReq:ReadSharedReq [12ff00:12ff3f] IF
[9635000]mem_ctrl.cc addToReadQueue:ReadSharedReq [12ff00:12ff3f] IF
[9635000]mem_ctrl.cc doBurstAccess:ReadSharedReq [12ff00:12ff3f] IF
[9653750]mem_ctrl.cc processRespondEvent:ReadSharedReq [12ff00:12ff3f] IF
[9653750]mem_ctrl.cc accessAndRespond:ReadSharedReq [12ff00:12ff3f] IF
[9687000]mem_ctrl.cc recvTimingReq:ReadSharedReq [100001d6b00:100001d6b3f]
[9687000]mem_ctrl.cc addToReadQueue:ReadSharedReq [100001d6b00:100001d6b3f]
[9687000]mem_ctrl.cc doBurstAccess:ReadSharedReq [100001d6b00:100001d6b3f]
[9712000]mem_ctrl.cc recvTimingReq:ReadSharedReq [1d6b00:1d6b3f]
[9712000]mem_ctrl.cc addToReadQueue:ReadSharedReq [1d6b00:1d6b3f]
[9712000]mem_ctrl.cc doBurstAccess:ReadSharedReq [1d6b00:1d6b3f]
[9719500]mem_ctrl.cc processRespondEvent:ReadSharedReq [100001d6b00:100001d6b3f]
[9719500]mem_ctrl.cc accessAndRespond:ReadSharedReq [100001d6b00:100001d6b3f]
[9744500]mem_ctrl.cc processRespondEvent:ReadSharedReq [1d6b00:1d6b3f]
[9744500]mem_ctrl.cc accessAndRespond:ReadSharedReq [1d6b00:1d6b3f]
[9774000]mem_ctrl.cc recvTimingReq:ReadSharedReq [100001d6b40:100001d6b7f]
[9774000]mem_ctrl.cc addToReadQueue:ReadSharedReq [100001d6b40:100001d6b7f]
[9774000]mem_ctrl.cc doBurstAccess:ReadSharedReq [100001d6b40:100001d6b7f]
[9792750]mem_ctrl.cc processRespondEvent:ReadSharedReq [100001d6b40:100001d6b7f]
[9792750]mem_ctrl.cc accessAndRespond:ReadSharedReq [100001d6b40:100001d6b7f]
[9799000]mem_ctrl.cc recvTimingReq:ReadSharedReq [1d6b40:1d6b7f]
[9799000]mem_ctrl.cc addToReadQueue:ReadSharedReq [1d6b40:1d6b7f]
[9799000]mem_ctrl.cc doBurstAccess:ReadSharedReq [1d6b40:1d6b7f]
[9817750]mem_ctrl.cc processRespondEvent:ReadSharedReq [1d6b40:1d6b7f]
[9817750]mem_ctrl.cc accessAndRespond:ReadSharedReq [1d6b40:1d6b7f]
[9851000]mem_ctrl.cc recvTimingReq:ReadSharedReq [10000130040:1000013007f] IF
[9851000]mem_ctrl.cc addToReadQueue:ReadSharedReq [10000130040:1000013007f] IF
[9851000]mem_ctrl.cc doBurstAccess:ReadSharedReq [10000130040:1000013007f] IF
[9869750]mem_ctrl.cc processRespondEvent:ReadSharedReq [10000130040:1000013007f] IF
[9869750]mem_ctrl.cc accessAndRespond:ReadSharedReq [10000130040:1000013007f] IF
[9876000]mem_ctrl.cc recvTimingReq:ReadSharedReq [12ff40:12ff7f] IF
[9876000]mem_ctrl.cc addToReadQueue:ReadSharedReq [12ff40:12ff7f] IF
[9876000]mem_ctrl.cc doBurstAccess:ReadSharedReq [12ff40:12ff7f] IF
[9894750]mem_ctrl.cc processRespondEvent:ReadSharedReq [12ff40:12ff7f] IF
[9894750]mem_ctrl.cc accessAndRespond:ReadSharedReq [12ff40:12ff7f] IF
[9939000]mem_ctrl.cc recvTimingReq:ReadSharedReq [100000a90c0:100000a90ff] IF
[9939000]mem_ctrl.cc addToReadQueue:ReadSharedReq [100000a90c0:100000a90ff] IF
[9939000]mem_ctrl.cc doBurstAccess:ReadSharedReq [100000a90c0:100000a90ff] IF
[9957750]mem_ctrl.cc processRespondEvent:ReadSharedReq [100000a90c0:100000a90ff] IF
[9957750]mem_ctrl.cc accessAndRespond:ReadSharedReq [100000a90c0:100000a90ff] IF
[9964000]mem_ctrl.cc recvTimingReq:ReadSharedReq [a8fc0:a8fff] IF
[9964000]mem_ctrl.cc addToReadQueue:ReadSharedReq [a8fc0:a8fff] IF
[9964000]mem_ctrl.cc doBurstAccess:ReadSharedReq [a8fc0:a8fff] IF
[...]
[203577000]mem_ctrl.cc recvTimingReq:ReadSharedReq [140200:14023f] IF
[203577000]mem_ctrl.cc addToReadQueue:ReadSharedReq [140200:14023f] IF
[203577000]mem_ctrl.cc doBurstAccess:ReadSharedReq [140200:14023f] IF
[203588000]mem_ctrl.cc recvTimingReq:WritebackDirty [100001e6000:100001e603f]
[203588000]mem_ctrl.cc addToWriteQueue:WritebackDirty [100001e6000:100001e603f]
[203588000]mem_ctrl.cc accessAndRespond:WritebackDirty [100001e6000:100001e603f]
[203595750]mem_ctrl.cc processRespondEvent:ReadSharedReq [140200:14023f] IF
[203595750]mem_ctrl.cc accessAndRespond:ReadSharedReq [140200:14023f] IF
[203610000]mem_ctrl.cc recvTimingReq:ReadExReq [100001fb000:100001fb03f]
[203610000]mem_ctrl.cc addToReadQueue:ReadExReq [100001fb000:100001fb03f]
[203610000]mem_ctrl.cc doBurstAccess:ReadExReq [100001fb000:100001fb03f]
[203628750]mem_ctrl.cc processRespondEvent:ReadExReq [100001fb000:100001fb03f]
[203628750]mem_ctrl.cc accessAndRespond:ReadExReq [100001fb000:100001fb03f]
[203654000]mem_ctrl.cc recvTimingReq:ReadSharedReq [d5340:d537f] IF
[203654000]mem_ctrl.cc addToReadQueue:ReadSharedReq [d5340:d537f] IF
[203654000]mem_ctrl.cc doBurstAccess:ReadSharedReq [d5340:d537f] IF
[203686500]mem_ctrl.cc processRespondEvent:ReadSharedReq [d5340:d537f] IF
[203686500]mem_ctrl.cc accessAndRespond:ReadSharedReq [d5340:d537f] IF
[203691000]mem_ctrl.cc recvTimingReq:WritebackDirty [100001d7000:100001d703f]
[203691000]mem_ctrl.cc addToWriteQueue:WritebackDirty [100001d7000:100001d703f]
[203691000]mem_ctrl.cc accessAndRespond:WritebackDirty [100001d7000:100001d703f]
[203713000]mem_ctrl.cc recvTimingReq:ReadExReq [100001fc000:100001fc03f]
[203713000]mem_ctrl.cc addToReadQueue:ReadExReq [100001fc000:100001fc03f]
[203713000]mem_ctrl.cc doBurstAccess:ReadExReq [100001fc000:100001fc03f]
[203745500]mem_ctrl.cc processRespondEvent:ReadExReq [100001fc000:100001fc03f]
[203745500]mem_ctrl.cc accessAndRespond:ReadExReq [100001fc000:100001fc03f]
[203746000]mem_ctrl.cc recvTimingReq:ReadSharedReq [d5380:d53bf] IF
[203746000]mem_ctrl.cc addToReadQueue:ReadSharedReq [d5380:d53bf] IF
[203746000]mem_ctrl.cc doBurstAccess:ReadSharedReq [d5380:d53bf] IF
[203764750]mem_ctrl.cc processRespondEvent:ReadSharedReq [d5380:d53bf] IF
[203764750]mem_ctrl.cc accessAndRespond:ReadSharedReq [d5380:d53bf] IF
[203808000]mem_ctrl.cc recvTimingReq:WritebackDirty [100001e8000:100001e803f]
[203808000]mem_ctrl.cc addToWriteQueue:WritebackDirty [100001e8000:100001e803f]
[203808000]mem_ctrl.cc accessAndRespond:WritebackDirty [100001e8000:100001e803f]
[203830000]mem_ctrl.cc recvTimingReq:ReadExReq [100001fd000:100001fd03f]
[203830000]mem_ctrl.cc addToReadQueue:ReadExReq [100001fd000:100001fd03f]
[203830000]mem_ctrl.cc doBurstAccess:ReadExReq [100001fd000:100001fd03f]
[203848750]mem_ctrl.cc processRespondEvent:ReadExReq [100001fd000:100001fd03f]
[203848750]mem_ctrl.cc accessAndRespond:ReadExReq [100001fd000:100001fd03f]
[203872000]mem_ctrl.cc recvTimingReq:ReadSharedReq [d5440:d547f] IF
[203872000]mem_ctrl.cc addToReadQueue:ReadSharedReq [d5440:d547f] IF
[203872000]mem_ctrl.cc doBurstAccess:ReadSharedReq [d5440:d547f] IF
[203890750]mem_ctrl.cc processRespondEvent:ReadSharedReq [d5440:d547f] IF
[203890750]mem_ctrl.cc accessAndRespond:ReadSharedReq [d5440:d547f] IF
[203911000]mem_ctrl.cc recvTimingReq:WritebackDirty [100001e9000:100001e903f]
[203911000]mem_ctrl.cc addToWriteQueue:WritebackDirty [100001e9000:100001e903f]
[203911000]mem_ctrl.cc accessAndRespond:WritebackDirty [100001e9000:100001e903f]
[203933000]mem_ctrl.cc recvTimingReq:ReadExReq [100001fe000:100001fe03f]
[203933000]mem_ctrl.cc addToReadQueue:ReadExReq [100001fe000:100001fe03f]
[203933000]mem_ctrl.cc doBurstAccess:ReadExReq [100001fe000:100001fe03f]
[203959000]mem_ctrl.cc recvTimingReq:ReadSharedReq [d4580:d45bf] IF
[203959000]mem_ctrl.cc addToReadQueue:ReadSharedReq [d4580:d45bf] IF
[203959000]mem_ctrl.cc doBurstAccess:ReadSharedReq [d4580:d45bf] IF
[203965500]mem_ctrl.cc processRespondEvent:ReadExReq [100001fe000:100001fe03f]
[203965500]mem_ctrl.cc accessAndRespond:ReadExReq [100001fe000:100001fe03f]
[203977750]mem_ctrl.cc processRespondEvent:ReadSharedReq [d4580:d45bf] IF
[203977750]mem_ctrl.cc accessAndRespond:ReadSharedReq [d4580:d45bf] IF
[204028000]mem_ctrl.cc recvTimingReq:WritebackDirty [100001ea000:100001ea03f]
[204028000]mem_ctrl.cc addToWriteQueue:WritebackDirty [100001ea000:100001ea03f]
[204028000]mem_ctrl.cc accessAndRespond:WritebackDirty [100001ea000:100001ea03f]
[204050000]mem_ctrl.cc recvTimingReq:ReadExReq [100001ff000:100001ff03f]
[204050000]mem_ctrl.cc addToReadQueue:ReadExReq [100001ff000:100001ff03f]
[204050000]mem_ctrl.cc doBurstAccess:ReadExReq [100001ff000:100001ff03f]
[204059000]mem_ctrl.cc recvTimingReq:ReadSharedReq [d4480:d44bf] IF
[204059000]mem_ctrl.cc addToReadQueue:ReadSharedReq [d4480:d44bf] IF
[204059000]mem_ctrl.cc doBurstAccess:ReadSharedReq [d4480:d44bf] IF
[204068750]mem_ctrl.cc processRespondEvent:ReadExReq [100001ff000:100001ff03f]
[204068750]mem_ctrl.cc accessAndRespond:ReadExReq [100001ff000:100001ff03f]
[204077750]mem_ctrl.cc processRespondEvent:ReadSharedReq [d4480:d44bf] IF
[204077750]mem_ctrl.cc accessAndRespond:ReadSharedReq [d4480:d44bf] IF
[204131000]mem_ctrl.cc recvTimingReq:WritebackDirty [100001eb000:100001eb03f]
[204131000]mem_ctrl.cc addToWriteQueue:WritebackDirty [100001eb000:100001eb03f]
[204131000]mem_ctrl.cc accessAndRespond:WritebackDirty [100001eb000:100001eb03f]
[204143000]mem_ctrl.cc recvTimingReq:ReadSharedReq [d4400:d443f] IF
[204143000]mem_ctrl.cc addToReadQueue:ReadSharedReq [d4400:d443f] IF
[204143000]mem_ctrl.cc doBurstAccess:ReadSharedReq [d4400:d443f] IF
[204153000]mem_ctrl.cc recvTimingReq:ReadExReq [10000200000:1000020003f]
[204153000]mem_ctrl.cc addToReadQueue:ReadExReq [10000200000:1000020003f]
[204153000]mem_ctrl.cc doBurstAccess:ReadExReq [10000200000:1000020003f]
[204161750]mem_ctrl.cc processRespondEvent:ReadSharedReq [d4400:d443f] IF
[204161750]mem_ctrl.cc accessAndRespond:ReadSharedReq [d4400:d443f] IF
[204185500]mem_ctrl.cc processRespondEvent:ReadExReq [10000200000:1000020003f]
[204185500]mem_ctrl.cc accessAndRespond:ReadExReq [10000200000:1000020003f]
[204225000]mem_ctrl.cc recvTimingReq:ReadSharedReq [d3940:d397f] IF
[204225000]mem_ctrl.cc addToReadQueue:ReadSharedReq [d3940:d397f] IF
[204225000]mem_ctrl.cc doBurstAccess:ReadSharedReq [d3940:d397f] IF
[204248000]mem_ctrl.cc recvTimingReq:WritebackDirty [100001ec000:100001ec03f]
[204248000]mem_ctrl.cc addToWriteQueue:WritebackDirty [100001ec000:100001ec03f]
[204248000]mem_ctrl.cc accessAndRespond:WritebackDirty [100001ec000:100001ec03f]
[204257500]mem_ctrl.cc processRespondEvent:ReadSharedReq [d3940:d397f] IF
[204257500]mem_ctrl.cc accessAndRespond:ReadSharedReq [d3940:d397f] IF
[204270000]mem_ctrl.cc recvTimingReq:ReadExReq [10000201000:1000020103f]
[204270000]mem_ctrl.cc addToReadQueue:ReadExReq [10000201000:1000020103f]
[204270000]mem_ctrl.cc doBurstAccess:ReadExReq [10000201000:1000020103f]
[204288750]mem_ctrl.cc processRespondEvent:ReadExReq [10000201000:1000020103f]
[204288750]mem_ctrl.cc accessAndRespond:ReadExReq [10000201000:1000020103f]
[204341000]mem_ctrl.cc recvTimingReq:ReadSharedReq [d3080:d30bf] IF
[204341000]mem_ctrl.cc addToReadQueue:ReadSharedReq [d3080:d30bf] IF
[204341000]mem_ctrl.cc doBurstAccess:ReadSharedReq [d3080:d30bf] IF
[204351500]mem_ctrl.cc recvTimingReq:WritebackDirty [100001ed000:100001ed03f]
[204351500]mem_ctrl.cc addToWriteQueue:WritebackDirty [100001ed000:100001ed03f]
[204351500]mem_ctrl.cc accessAndRespond:WritebackDirty [100001ed000:100001ed03f]
[204359750]mem_ctrl.cc processRespondEvent:ReadSharedReq [d3080:d30bf] IF
[204359750]mem_ctrl.cc accessAndRespond:ReadSharedReq [d3080:d30bf] IF
[204373000]mem_ctrl.cc recvTimingReq:ReadExReq [10000202000:1000020203f]
[204373000]mem_ctrl.cc addToReadQueue:ReadExReq [10000202000:1000020203f]
[204373000]mem_ctrl.cc doBurstAccess:ReadExReq [10000202000:1000020203f]
[204405500]mem_ctrl.cc processRespondEvent:ReadExReq [10000202000:1000020203f]
[204405500]mem_ctrl.cc accessAndRespond:ReadExReq [10000202000:1000020203f]
[204417000]mem_ctrl.cc recvTimingReq:ReadSharedReq [d5500:d553f] IF
[204417000]mem_ctrl.cc addToReadQueue:ReadSharedReq [d5500:d553f] IF
[204417000]mem_ctrl.cc doBurstAccess:ReadSharedReq [d5500:d553f] IF
[204435750]mem_ctrl.cc processRespondEvent:ReadSharedReq [d5500:d553f] IF
[204435750]mem_ctrl.cc accessAndRespond:ReadSharedReq [d5500:d553f] IF
[204468000]mem_ctrl.cc recvTimingReq:WritebackDirty [100001ee000:100001ee03f]
[204468000]mem_ctrl.cc addToWriteQueue:WritebackDirty [100001ee000:100001ee03f]
[204468000]mem_ctrl.cc accessAndRespond:WritebackDirty [100001ee000:100001ee03f]
[204490000]mem_ctrl.cc recvTimingReq:ReadExReq [10000203000:1000020303f]
[204490000]mem_ctrl.cc addToReadQueue:ReadExReq [10000203000:1000020303f]
[204490000]mem_ctrl.cc doBurstAccess:ReadExReq [10000203000:1000020303f]
[204508750]mem_ctrl.cc processRespondEvent:ReadExReq [10000203000:1000020303f]
[204508750]mem_ctrl.cc accessAndRespond:ReadExReq [10000203000:1000020303f]
[204514000]mem_ctrl.cc recvTimingReq:ReadSharedReq [d5580:d55bf] IF
[204514000]mem_ctrl.cc addToReadQueue:ReadSharedReq [d5580:d55bf] IF
[204514000]mem_ctrl.cc doBurstAccess:ReadSharedReq [d5580:d55bf] IF
[204532750]mem_ctrl.cc processRespondEvent:ReadSharedReq [d5580:d55bf] IF
[204532750]mem_ctrl.cc accessAndRespond:ReadSharedReq [d5580:d55bf] IF
[204571000]mem_ctrl.cc recvTimingReq:WritebackDirty [100001ef000:100001ef03f]
[204571000]mem_ctrl.cc addToWriteQueue:WritebackDirty [100001ef000:100001ef03f]
[204571000]mem_ctrl.cc accessAndRespond:WritebackDirty [100001ef000:100001ef03f]
[204593000]mem_ctrl.cc recvTimingReq:ReadExReq [10000204000:1000020403f]
[204593000]mem_ctrl.cc addToReadQueue:ReadExReq [10000204000:1000020403f]
[204593000]mem_ctrl.cc doBurstAccess:ReadExReq [10000204000:1000020403f]
[204599000]mem_ctrl.cc recvTimingReq:ReadSharedReq [d5540:d557f] IF
[204599000]mem_ctrl.cc addToReadQueue:ReadSharedReq [d5540:d557f] IF
[204599000]mem_ctrl.cc doBurstAccess:ReadSharedReq [d5540:d557f] IF
[204617750]mem_ctrl.cc processRespondEvent:ReadSharedReq [d5540:d557f] IF
[204617750]mem_ctrl.cc accessAndRespond:ReadSharedReq [d5540:d557f] IF
[204625500]mem_ctrl.cc processRespondEvent:ReadExReq [10000204000:1000020403f]
[204625500]mem_ctrl.cc accessAndRespond:ReadExReq [10000204000:1000020403f]
[204673000]mem_ctrl.cc recvTimingReq:ReadSharedReq [d55c0:d55ff] IF
[204673000]mem_ctrl.cc addToReadQueue:ReadSharedReq [d55c0:d55ff] IF
[204673000]mem_ctrl.cc doBurstAccess:ReadSharedReq [d55c0:d55ff] IF
[204688000]mem_ctrl.cc recvTimingReq:WritebackDirty [100001f0000:100001f003f]
[204688000]mem_ctrl.cc addToWriteQueue:WritebackDirty [100001f0000:100001f003f]
[204688000]mem_ctrl.cc accessAndRespond:WritebackDirty [100001f0000:100001f003f]
[204691750]mem_ctrl.cc processRespondEvent:ReadSharedReq [d55c0:d55ff] IF
[204691750]mem_ctrl.cc accessAndRespond:ReadSharedReq [d55c0:d55ff] IF
[204710000]mem_ctrl.cc recvTimingReq:ReadExReq [10000205000:1000020503f]
[204710000]mem_ctrl.cc addToReadQueue:ReadExReq [10000205000:1000020503f]
[204710000]mem_ctrl.cc doBurstAccess:ReadExReq [10000205000:1000020503f]
[204728750]mem_ctrl.cc processRespondEvent:ReadExReq [10000205000:1000020503f]
[204728750]mem_ctrl.cc accessAndRespond:ReadExReq [10000205000:1000020503f]
[204732000]mem_ctrl.cc recvTimingReq:WritebackDirty [100001d95c0:100001d95ff]
[204732000]mem_ctrl.cc addToWriteQueue:WritebackDirty [100001d95c0:100001d95ff]
[204732000]mem_ctrl.cc accessAndRespond:WritebackDirty [100001d95c0:100001d95ff]
[204750000]mem_ctrl.cc recvTimingReq:ReadSharedReq [d5600:d563f] IF
[204750000]mem_ctrl.cc addToReadQueue:ReadSharedReq [d5600:d563f] IF
[204750000]mem_ctrl.cc doBurstAccess:ReadSharedReq [d5600:d563f] IF
[204768750]mem_ctrl.cc processRespondEvent:ReadSharedReq [d5600:d563f] IF
[204768750]mem_ctrl.cc accessAndRespond:ReadSharedReq [d5600:d563f] IF
[204791000]mem_ctrl.cc recvTimingReq:WritebackDirty [100001f1000:100001f103f]
[204791000]mem_ctrl.cc addToWriteQueue:WritebackDirty [100001f1000:100001f103f]
[204791000]mem_ctrl.cc accessAndRespond:WritebackDirty [100001f1000:100001f103f]
[204813000]mem_ctrl.cc recvTimingReq:ReadExReq [10000206000:1000020603f]
[204813000]mem_ctrl.cc addToReadQueue:ReadExReq [10000206000:1000020603f]
[204813000]mem_ctrl.cc doBurstAccess:ReadExReq [10000206000:1000020603f]
[204829000]mem_ctrl.cc recvTimingReq:ReadSharedReq [d5680:d56bf] IF
[204829000]mem_ctrl.cc addToReadQueue:ReadSharedReq [d5680:d56bf] IF
[204829000]mem_ctrl.cc doBurstAccess:ReadSharedReq [d5680:d56bf] IF
[204845500]mem_ctrl.cc processRespondEvent:ReadExReq [10000206000:1000020603f]
[204845500]mem_ctrl.cc accessAndRespond:ReadExReq [10000206000:1000020603f]
[204847750]mem_ctrl.cc processRespondEvent:ReadSharedReq [d5680:d56bf] IF
[204847750]mem_ctrl.cc accessAndRespond:ReadSharedReq [d5680:d56bf] IF
[204908000]mem_ctrl.cc recvTimingReq:WritebackDirty [100001f2000:100001f203f]
[204908000]mem_ctrl.cc addToWriteQueue:WritebackDirty [100001f2000:100001f203f]
[204908000]mem_ctrl.cc accessAndRespond:WritebackDirty [100001f2000:100001f203f]
[204921000]mem_ctrl.cc recvTimingReq:ReadSharedReq [d5640:d567f] IF
[204921000]mem_ctrl.cc addToReadQueue:ReadSharedReq [d5640:d567f] IF
[204921000]mem_ctrl.cc doBurstAccess:ReadSharedReq [d5640:d567f] IF
[204930000]mem_ctrl.cc recvTimingReq:ReadExReq [10000207000:1000020703f]
[204930000]mem_ctrl.cc addToReadQueue:ReadExReq [10000207000:1000020703f]
[204930000]mem_ctrl.cc doBurstAccess:ReadExReq [10000207000:1000020703f]
[204939750]mem_ctrl.cc processRespondEvent:ReadSharedReq [d5640:d567f] IF
[204939750]mem_ctrl.cc accessAndRespond:ReadSharedReq [d5640:d567f] IF
[204948750]mem_ctrl.cc processRespondEvent:ReadExReq [10000207000:1000020703f]
[204948750]mem_ctrl.cc accessAndRespond:ReadExReq [10000207000:1000020703f]
[205011000]mem_ctrl.cc recvTimingReq:WritebackDirty [100001f3000:100001f303f]
[205011000]mem_ctrl.cc addToWriteQueue:WritebackDirty [100001f3000:100001f303f]
[205011000]mem_ctrl.cc accessAndRespond:WritebackDirty [100001f3000:100001f303f]
[205033000]mem_ctrl.cc recvTimingReq:ReadExReq [10000208000:1000020803f]
[205033000]mem_ctrl.cc addToReadQueue:ReadExReq [10000208000:1000020803f]
[205033000]mem_ctrl.cc doBurstAccess:ReadExReq [10000208000:1000020803f]
[205039000]mem_ctrl.cc recvTimingReq:ReadSharedReq [d2fc0:d2fff] IF
[205039000]mem_ctrl.cc addToReadQueue:ReadSharedReq [d2fc0:d2fff] IF
[205039000]mem_ctrl.cc doBurstAccess:ReadSharedReq [d2fc0:d2fff] IF
[205057750]mem_ctrl.cc processRespondEvent:ReadSharedReq [d2fc0:d2fff] IF
[205057750]mem_ctrl.cc accessAndRespond:ReadSharedReq [d2fc0:d2fff] IF
[205065500]mem_ctrl.cc processRespondEvent:ReadExReq [10000208000:1000020803f]
[205065500]mem_ctrl.cc accessAndRespond:ReadExReq [10000208000:1000020803f]
[205128000]mem_ctrl.cc recvTimingReq:WritebackDirty [100001f4000:100001f403f]
[205128000]mem_ctrl.cc addToWriteQueue:WritebackDirty [100001f4000:100001f403f]
[205128000]mem_ctrl.cc accessAndRespond:WritebackDirty [100001f4000:100001f403f]
[205131000]mem_ctrl.cc recvTimingReq:ReadSharedReq [cd080:cd0bf] IF
[205131000]mem_ctrl.cc addToReadQueue:ReadSharedReq [cd080:cd0bf] IF
[205131000]mem_ctrl.cc doBurstAccess:ReadSharedReq [cd080:cd0bf] IF
[205150000]mem_ctrl.cc recvTimingReq:ReadExReq [10000209000:1000020903f]
[205150000]mem_ctrl.cc addToReadQueue:ReadExReq [10000209000:1000020903f]
[205150000]mem_ctrl.cc doBurstAccess:ReadExReq [10000209000:1000020903f]
[205163500]mem_ctrl.cc processRespondEvent:ReadSharedReq [cd080:cd0bf] IF
[205163500]mem_ctrl.cc accessAndRespond:ReadSharedReq [cd080:cd0bf] IF
[205168750]mem_ctrl.cc processRespondEvent:ReadExReq [10000209000:1000020903f]
[205168750]mem_ctrl.cc accessAndRespond:ReadExReq [10000209000:1000020903f]
[205231000]mem_ctrl.cc recvTimingReq:WritebackDirty [100001f5000:100001f503f]
[205231000]mem_ctrl.cc addToWriteQueue:WritebackDirty [100001f5000:100001f503f]
[205231000]mem_ctrl.cc accessAndRespond:WritebackDirty [100001f5000:100001f503f]
[205248000]mem_ctrl.cc recvTimingReq:ReadSharedReq [cd0c0:cd0ff] IF
[205248000]mem_ctrl.cc addToReadQueue:ReadSharedReq [cd0c0:cd0ff] IF
[205248000]mem_ctrl.cc doBurstAccess:ReadSharedReq [cd0c0:cd0ff] IF
[205253000]mem_ctrl.cc recvTimingReq:ReadExReq [1000020a000:1000020a03f]
[205253000]mem_ctrl.cc addToReadQueue:ReadExReq [1000020a000:1000020a03f]
[205253000]mem_ctrl.cc doBurstAccess:ReadExReq [1000020a000:1000020a03f]
[205266750]mem_ctrl.cc processRespondEvent:ReadSharedReq [cd0c0:cd0ff] IF
[205266750]mem_ctrl.cc accessAndRespond:ReadSharedReq [cd0c0:cd0ff] IF
[205285500]mem_ctrl.cc processRespondEvent:ReadExReq [1000020a000:1000020a03f]
[205285500]mem_ctrl.cc accessAndRespond:ReadExReq [1000020a000:1000020a03f]
[205335000]mem_ctrl.cc recvTimingReq:ReadSharedReq [6c580:6c5bf] IF
[205335000]mem_ctrl.cc addToReadQueue:ReadSharedReq [6c580:6c5bf] IF
[205335000]mem_ctrl.cc doBurstAccess:ReadSharedReq [6c580:6c5bf] IF
[205348000]mem_ctrl.cc recvTimingReq:WritebackDirty [100001f6000:100001f603f]
[205348000]mem_ctrl.cc addToWriteQueue:WritebackDirty [100001f6000:100001f603f]
[205348000]mem_ctrl.cc accessAndRespond:WritebackDirty [100001f6000:100001f603f]
[205370000]mem_ctrl.cc recvTimingReq:ReadExReq [1000020b000:1000020b03f]
[205370000]mem_ctrl.cc addToReadQueue:ReadExReq [1000020b000:1000020b03f]
[205370000]mem_ctrl.cc doBurstAccess:ReadExReq [1000020b000:1000020b03f]
[205381250]mem_ctrl.cc processRespondEvent:ReadSharedReq [6c580:6c5bf] IF
[205381250]mem_ctrl.cc accessAndRespond:ReadSharedReq [6c580:6c5bf] IF
[205388750]mem_ctrl.cc processRespondEvent:ReadExReq [1000020b000:1000020b03f]
[205388750]mem_ctrl.cc accessAndRespond:ReadExReq [1000020b000:1000020b03f]
[205436000]mem_ctrl.cc recvTimingReq:ReadSharedReq [6c4c0:6c4ff] IF
[205436000]mem_ctrl.cc addToReadQueue:ReadSharedReq [6c4c0:6c4ff] IF
[205436000]mem_ctrl.cc doBurstAccess:ReadSharedReq [6c4c0:6c4ff] IF
[205451000]mem_ctrl.cc recvTimingReq:WritebackDirty [100001f7000:100001f703f]
[205451000]mem_ctrl.cc addToWriteQueue:WritebackDirty [100001f7000:100001f703f]
[205451000]mem_ctrl.cc accessAndRespond:WritebackDirty [100001f7000:100001f703f]
[205454750]mem_ctrl.cc processRespondEvent:ReadSharedReq [6c4c0:6c4ff] IF
[205454750]mem_ctrl.cc accessAndRespond:ReadSharedReq [6c4c0:6c4ff] IF
[205473000]mem_ctrl.cc recvTimingReq:ReadExReq [1000020c000:1000020c03f]
[205473000]mem_ctrl.cc addToReadQueue:ReadExReq [1000020c000:1000020c03f]
[205473000]mem_ctrl.cc doBurstAccess:ReadExReq [1000020c000:1000020c03f]
[205505500]mem_ctrl.cc processRespondEvent:ReadExReq [1000020c000:1000020c03f]
[205505500]mem_ctrl.cc accessAndRespond:ReadExReq [1000020c000:1000020c03f]
[205521000]mem_ctrl.cc recvTimingReq:ReadSharedReq [6c500:6c53f] IF
[205521000]mem_ctrl.cc addToReadQueue:ReadSharedReq [6c500:6c53f] IF
[205521000]mem_ctrl.cc doBurstAccess:ReadSharedReq [6c500:6c53f] IF
[205539750]mem_ctrl.cc processRespondEvent:ReadSharedReq [6c500:6c53f] IF
[205539750]mem_ctrl.cc accessAndRespond:ReadSharedReq [6c500:6c53f] IF
[205568000]mem_ctrl.cc recvTimingReq:WritebackDirty [100001f8000:100001f803f]
[205568000]mem_ctrl.cc addToWriteQueue:WritebackDirty [100001f8000:100001f803f]
[205568000]mem_ctrl.cc accessAndRespond:WritebackDirty [100001f8000:100001f803f]
[205590000]mem_ctrl.cc recvTimingReq:ReadExReq [1000020d000:1000020d03f]
[205590000]mem_ctrl.cc addToReadQueue:ReadExReq [1000020d000:1000020d03f]
[205590000]mem_ctrl.cc doBurstAccess:ReadExReq [1000020d000:1000020d03f]
[205608750]mem_ctrl.cc processRespondEvent:ReadExReq [1000020d000:1000020d03f]
[205608750]mem_ctrl.cc accessAndRespond:ReadExReq [1000020d000:1000020d03f]
[205618000]mem_ctrl.cc recvTimingReq:ReadSharedReq [6c940:6c97f] IF
[205618000]mem_ctrl.cc addToReadQueue:ReadSharedReq [6c940:6c97f] IF
[205618000]mem_ctrl.cc doBurstAccess:ReadSharedReq [6c940:6c97f] IF
[205636750]mem_ctrl.cc processRespondEvent:ReadSharedReq [6c940:6c97f] IF
[205636750]mem_ctrl.cc accessAndRespond:ReadSharedReq [6c940:6c97f] IF
[205671000]mem_ctrl.cc recvTim